<configuration>
    <input>
        <net-file value="../net/sejong_area.net.xml"/>
        <route-files value="../routes/random2.rou.xml"/>
    </input>
<time>
    <begin value="0"/>
    <end value="3600"/>
</time>
</configuration>
