<?xml version="1.0" encoding="UTF-8"?>

<sumoConfiguration xmlns:xsi="http://www.w3.org/2001/XMLSchema-instance" xsi:noNamespaceSchemaLocation="http://sumo.dlr.de/xsd/sumoConfiguration.xsd">

    <input>
        <net-file value="../net/sejong_area.net.xml"/>
        <route-files value="../routes/random_traffic.rou.xml"/>
        <additional-files value="../taz/sejong_taz.add.xml"/>
    </input>

</sumoConfiguration>
