<?xml version="1.0" encoding="UTF-8"?>
<routes>
  <vType id="car" accel="2.6" decel="4.5" sigma="0.5" length="5.0" maxSpeed="70"/>

  <trip id="trip_0" type="car" depart="3.91" from="-489977602#3" to="-489977602#4" departLane="best"/>
  <trip id="trip_1" type="car" depart="18.70" from="-489977602#5" to="-489977602#3" departLane="best"/>
  <trip id="trip_2" type="car" depart="27.67" from="545162541#1" to="-311487892#2" departLane="best"/>
  <trip id="trip_3" type="car" depart="28.16" from="429521999#0" to="896836750#1" departLane="best"/>
  <trip id="trip_4" type="car" depart="29.15" from="545162541#1" to="311487892#2" departLane="best"/>
  <trip id="trip_5" type="car" depart="33.36" from="429521998#1" to="-311487884#2" departLane="best"/>
  <trip id="trip_6" type="car" depart="36.54" from="311487892#2" to="896836752#1" departLane="best"/>
  <trip id="trip_7" type="car" depart="37.97" from="693882616#1" to="-489977602#5" departLane="best"/>
  <trip id="trip_8" type="car" depart="45.59" from="-896836750#1" to="-545162541#1" departLane="best"/>
  <trip id="trip_9" type="car" depart="53.50" from="-311487884#1" to="-545162541#2" departLane="best"/>
  <trip id="trip_10" type="car" depart="56.63" from="774910112" to="774910117" departLane="best"/>
  <trip id="trip_11" type="car" depart="56.81" from="311487884#0" to="469995172#1" departLane="best"/>
  <trip id="trip_12" type="car" depart="67.47" from="-311487892#0" to="693882616#1" departLane="best"/>
  <trip id="trip_13" type="car" depart="68.17" from="-545162541#0" to="-896836751#1" departLane="best"/>
  <trip id="trip_14" type="car" depart="68.41" from="-1105725032" to="-489977602#2" departLane="best"/>
  <trip id="trip_15" type="car" depart="73.20" from="774910119" to="896836752#0" departLane="best"/>
  <trip id="trip_16" type="car" depart="78.48" from="311487892#0" to="-489977602#1" departLane="best"/>
  <trip id="trip_17" type="car" depart="83.43" from="429521999#1" to="774910118" departLane="best"/>
  <trip id="trip_18" type="car" depart="87.93" from="1105725032" to="-545162541#4" departLane="best"/>
  <trip id="trip_19" type="car" depart="89.23" from="-896836750#1" to="545162541#3" departLane="best"/>
  <trip id="trip_20" type="car" depart="92.44" from="-489977602#5" to="896836752#4" departLane="best"/>
  <trip id="trip_21" type="car" depart="93.29" from="311487884#1" to="-545162541#0" departLane="best"/>
  <trip id="trip_22" type="car" depart="93.83" from="311487892#1" to="-896836751#0" departLane="best"/>
  <trip id="trip_23" type="car" depart="94.62" from="311487884#0" to="774910118" departLane="best"/>
  <trip id="trip_24" type="car" depart="97.08" from="-545162541#2" to="896836751#0" departLane="best"/>
  <trip id="trip_25" type="car" depart="103.32" from="489977602#5" to="489977602#0" departLane="best"/>
  <trip id="trip_26" type="car" depart="106.14" from="545162541#1" to="774910118" departLane="best"/>
  <trip id="trip_27" type="car" depart="106.65" from="545162541#1" to="469995172#1" departLane="best"/>
  <trip id="trip_28" type="car" depart="117.50" from="774910109" to="429521998#1" departLane="best"/>
  <trip id="trip_29" type="car" depart="117.70" from="176439214#1" to="429521998#1" departLane="best"/>
  <trip id="trip_30" type="car" depart="129.24" from="774910117" to="896836751#1" departLane="best"/>
  <trip id="trip_31" type="car" depart="129.70" from="-774910112" to="896836751#1" departLane="best"/>
  <trip id="trip_32" type="car" depart="132.11" from="545162541#2" to="896836752#0" departLane="best"/>
  <trip id="trip_33" type="car" depart="144.83" from="311487892#1" to="896836752#3" departLane="best"/>
  <trip id="trip_34" type="car" depart="144.92" from="545162541#2" to="774910119" departLane="best"/>
  <trip id="trip_35" type="car" depart="148.30" from="489977602#0" to="896836752#2" departLane="best"/>
  <trip id="trip_36" type="car" depart="150.58" from="693882616#1" to="-545162541#2" departLane="best"/>
  <trip id="trip_37" type="car" depart="151.44" from="-545162541#4" to="429521998#1" departLane="best"/>
  <trip id="trip_38" type="car" depart="152.48" from="489977602#1" to="693882617#1" departLane="best"/>
  <trip id="trip_39" type="car" depart="153.71" from="489567380" to="-545162541#1" departLane="best"/>
  <trip id="trip_40" type="car" depart="158.71" from="693882616#0" to="311487892#2" departLane="best"/>
  <trip id="trip_41" type="car" depart="159.61" from="489567380" to="-545162541#3" departLane="best"/>
  <trip id="trip_42" type="car" depart="160.86" from="-489977602#0" to="429521999#0" departLane="best"/>
  <trip id="trip_43" type="car" depart="163.04" from="896836752#4" to="-489977602#1" departLane="best"/>
  <trip id="trip_44" type="car" depart="163.66" from="-311487884#1" to="-489977602#2" departLane="best"/>
  <trip id="trip_45" type="car" depart="165.53" from="-1106590828" to="311487884#1" departLane="best"/>
  <trip id="trip_46" type="car" depart="165.57" from="429521999#0" to="-311487884#1" departLane="best"/>
  <trip id="trip_47" type="car" depart="175.17" from="896836752#4" to="489977602#2" departLane="best"/>
  <trip id="trip_48" type="car" depart="176.22" from="545162541#1" to="896836742" departLane="best"/>
  <trip id="trip_49" type="car" depart="180.79" from="896836750#0" to="774910108" departLane="best"/>
  <trip id="trip_50" type="car" depart="182.12" from="896836752#0" to="-489977602#4" departLane="best"/>
  <trip id="trip_51" type="car" depart="182.18" from="-545162541#4" to="-489977602#4" departLane="best"/>
  <trip id="trip_52" type="car" depart="182.76" from="311487884#0" to="311487884#1" departLane="best"/>
  <trip id="trip_53" type="car" depart="187.85" from="-545162541#3" to="311487884#2" departLane="best"/>
  <trip id="trip_54" type="car" depart="191.72" from="-311487884#1" to="545162541#4" departLane="best"/>
  <trip id="trip_55" type="car" depart="199.58" from="896836742" to="489977602#3" departLane="best"/>
  <trip id="trip_56" type="car" depart="205.79" from="-311487892#2" to="469995172#0" departLane="best"/>
  <trip id="trip_57" type="car" depart="207.85" from="774901658" to="896836752#2" departLane="best"/>
  <trip id="trip_58" type="car" depart="208.53" from="429521999#1" to="311487884#0" departLane="best"/>
  <trip id="trip_59" type="car" depart="214.40" from="-896836750#1" to="469995172#1" departLane="best"/>
  <trip id="trip_60" type="car" depart="218.21" from="-311487892#1" to="-489977602#4" departLane="best"/>
  <trip id="trip_61" type="car" depart="223.65" from="489977602#3" to="311487884#0" departLane="best"/>
  <trip id="trip_62" type="car" depart="238.28" from="545162541#2" to="311487892#1" departLane="best"/>
  <trip id="trip_63" type="car" depart="242.64" from="-311487892#2" to="176439259" departLane="best"/>
  <trip id="trip_64" type="car" depart="246.28" from="-545162541#3" to="-545162541#4" departLane="best"/>
  <trip id="trip_65" type="car" depart="248.24" from="693882616#0" to="489977602#4" departLane="best"/>
  <trip id="trip_66" type="car" depart="257.08" from="311487892#1" to="-545162541#4" departLane="best"/>
  <trip id="trip_67" type="car" depart="263.74" from="896836752#2" to="-489977602#4" departLane="best"/>
  <trip id="trip_68" type="car" depart="264.57" from="774910117" to="693882617#0" departLane="best"/>
  <trip id="trip_69" type="car" depart="265.50" from="545162541#3" to="896836752#3" departLane="best"/>
  <trip id="trip_70" type="car" depart="265.90" from="896836751#1" to="-896836742" departLane="best"/>
  <trip id="trip_71" type="car" depart="266.70" from="545162541#2" to="774910117" departLane="best"/>
  <trip id="trip_72" type="car" depart="267.09" from="489977602#2" to="774910119" departLane="best"/>
  <trip id="trip_73" type="car" depart="269.39" from="-545162541#3" to="545162541#1" departLane="best"/>
  <trip id="trip_74" type="car" depart="270.23" from="-896836750#1" to="896836752#0" departLane="best"/>
  <trip id="trip_75" type="car" depart="278.94" from="311487892#2" to="693882617#0" departLane="best"/>
  <trip id="trip_76" type="car" depart="283.13" from="545162541#2" to="896836750#1" departLane="best"/>
  <trip id="trip_77" type="car" depart="284.14" from="-489977602#2" to="693882616#0" departLane="best"/>
  <trip id="trip_78" type="car" depart="290.08" from="469995172#0" to="896836751#1" departLane="best"/>
  <trip id="trip_79" type="car" depart="297.67" from="-1106590828" to="-896836750#0" departLane="best"/>
  <trip id="trip_80" type="car" depart="308.35" from="896836752#2" to="-489977602#2" departLane="best"/>
  <trip id="trip_81" type="car" depart="310.99" from="429521999#1" to="469995172#1" departLane="best"/>
  <trip id="trip_82" type="car" depart="317.27" from="774901658" to="489977602#3" departLane="best"/>
  <trip id="trip_83" type="car" depart="321.59" from="176439259" to="545162541#0" departLane="best"/>
  <trip id="trip_84" type="car" depart="325.09" from="896836752#1" to="489977602#3" departLane="best"/>
  <trip id="trip_85" type="car" depart="328.41" from="774910109" to="-489977602#0" departLane="best"/>
  <trip id="trip_86" type="car" depart="330.17" from="-545162541#4" to="693882616#1" departLane="best"/>
  <trip id="trip_87" type="car" depart="331.12" from="693882617#0" to="-545162541#2" departLane="best"/>
  <trip id="trip_88" type="car" depart="332.27" from="311487884#2" to="-311487892#1" departLane="best"/>
  <trip id="trip_89" type="car" depart="333.89" from="489977602#0" to="-489977602#5" departLane="best"/>
  <trip id="trip_90" type="car" depart="336.34" from="429521999#0" to="896836751#0" departLane="best"/>
  <trip id="trip_91" type="car" depart="336.60" from="-489977602#2" to="-311487884#2" departLane="best"/>
  <trip id="trip_92" type="car" depart="337.30" from="-311487884#2" to="-311487884#1" departLane="best"/>
  <trip id="trip_93" type="car" depart="341.01" from="896836752#0" to="311487884#1" departLane="best"/>
  <trip id="trip_94" type="car" depart="344.08" from="-489977602#2" to="896836752#4" departLane="best"/>
  <trip id="trip_95" type="car" depart="351.44" from="489977602#1" to="774910109" departLane="best"/>
  <trip id="trip_96" type="car" depart="351.67" from="489977602#1" to="-311487892#1" departLane="best"/>
  <trip id="trip_97" type="car" depart="357.04" from="774910119" to="693882616#1" departLane="best"/>
  <trip id="trip_98" type="car" depart="357.68" from="311487884#0" to="489977602#3" departLane="best"/>
  <trip id="trip_99" type="car" depart="358.47" from="-311487892#1" to="-311487892#0" departLane="best"/>
  <trip id="trip_100" type="car" depart="360.71" from="176439259" to="-311487892#1" departLane="best"/>
  <trip id="trip_101" type="car" depart="361.96" from="489567380" to="774910109" departLane="best"/>
  <trip id="trip_102" type="car" depart="366.31" from="-489977602#0" to="896836752#3" departLane="best"/>
  <trip id="trip_103" type="car" depart="369.32" from="-545162541#2" to="774910117" departLane="best"/>
  <trip id="trip_104" type="car" depart="372.61" from="-311487892#2" to="693882617#1" departLane="best"/>
  <trip id="trip_105" type="car" depart="372.96" from="429521999#1" to="489977602#2" departLane="best"/>
  <trip id="trip_106" type="car" depart="385.26" from="693882616#1" to="-896836750#1" departLane="best"/>
  <trip id="trip_107" type="car" depart="390.25" from="311487892#0" to="-311487884#2" departLane="best"/>
  <trip id="trip_108" type="car" depart="392.30" from="-545162541#3" to="896836752#4" departLane="best"/>
  <trip id="trip_109" type="car" depart="399.09" from="774901658" to="-489977602#0" departLane="best"/>
  <trip id="trip_110" type="car" depart="400.27" from="896836750#1" to="693882616#0" departLane="best"/>
  <trip id="trip_111" type="car" depart="409.14" from="545162541#4" to="896836750#1" departLane="best"/>
  <trip id="trip_112" type="car" depart="413.19" from="1105725032" to="693882616#0" departLane="best"/>
  <trip id="trip_113" type="car" depart="414.62" from="545162541#4" to="429521998#1" departLane="best"/>
  <trip id="trip_114" type="car" depart="418.46" from="896836750#0" to="693882617#0" departLane="best"/>
  <trip id="trip_115" type="car" depart="426.43" from="-489977602#2" to="311487884#1" departLane="best"/>
  <trip id="trip_116" type="car" depart="434.65" from="469995172#0" to="545162541#3" departLane="best"/>
  <trip id="trip_117" type="car" depart="435.62" from="896836750#0" to="693882617#1" departLane="best"/>
  <trip id="trip_118" type="car" depart="437.13" from="693882617#0" to="774910117" departLane="best"/>
  <trip id="trip_119" type="car" depart="437.23" from="-489977602#5" to="-545162541#3" departLane="best"/>
  <trip id="trip_120" type="car" depart="447.25" from="774901658" to="-311487884#0" departLane="best"/>
  <trip id="trip_121" type="car" depart="448.11" from="489567380" to="311487892#1" departLane="best"/>
  <trip id="trip_122" type="car" depart="450.61" from="896836752#0" to="311487892#2" departLane="best"/>
  <trip id="trip_123" type="car" depart="454.40" from="-774910112" to="311487884#0" departLane="best"/>
  <trip id="trip_124" type="car" depart="454.43" from="693882617#0" to="-311487884#2" departLane="best"/>
  <trip id="trip_125" type="car" depart="456.33" from="311487892#0" to="-311487892#1" departLane="best"/>
  <trip id="trip_126" type="car" depart="458.24" from="429521998#1" to="896836752#0" departLane="best"/>
  <trip id="trip_127" type="car" depart="462.00" from="896836750#0" to="489977602#1" departLane="best"/>
  <trip id="trip_128" type="car" depart="462.21" from="896836751#0" to="-545162541#2" departLane="best"/>
  <trip id="trip_129" type="car" depart="465.07" from="693882616#1" to="-896836750#1" departLane="best"/>
  <trip id="trip_130" type="car" depart="475.78" from="-896836750#1" to="1105725032" departLane="best"/>
  <trip id="trip_131" type="car" depart="477.03" from="311487892#1" to="-489977602#5" departLane="best"/>
  <trip id="trip_132" type="car" depart="477.72" from="774910112" to="-489977602#1" departLane="best"/>
  <trip id="trip_133" type="car" depart="482.73" from="896836752#1" to="896836750#1" departLane="best"/>
  <trip id="trip_134" type="car" depart="488.12" from="896836742" to="-489977602#4" departLane="best"/>
  <trip id="trip_135" type="car" depart="488.52" from="-489977602#2" to="693882616#0" departLane="best"/>
  <trip id="trip_136" type="car" depart="495.36" from="489567380" to="-545162541#4" departLane="best"/>
  <trip id="trip_137" type="car" depart="499.82" from="489977602#5" to="-896836750#0" departLane="best"/>
  <trip id="trip_138" type="car" depart="503.20" from="545162541#3" to="-545162541#0" departLane="best"/>
  <trip id="trip_139" type="car" depart="504.05" from="-489977602#3" to="-489977602#4" departLane="best"/>
  <trip id="trip_140" type="car" depart="510.75" from="545162541#2" to="-489977602#0" departLane="best"/>
  <trip id="trip_141" type="car" depart="511.82" from="545162541#1" to="774910117" departLane="best"/>
  <trip id="trip_142" type="car" depart="514.01" from="-896836742" to="-311487884#1" departLane="best"/>
  <trip id="trip_143" type="car" depart="526.48" from="-545162541#2" to="311487884#1" departLane="best"/>
  <trip id="trip_144" type="car" depart="531.99" from="896836750#1" to="489977602#5" departLane="best"/>
  <trip id="trip_145" type="car" depart="536.03" from="-489977602#4" to="896836750#1" departLane="best"/>
  <trip id="trip_146" type="car" depart="542.04" from="896836751#1" to="311487884#1" departLane="best"/>
  <trip id="trip_147" type="car" depart="543.10" from="774910109" to="774910119" departLane="best"/>
  <trip id="trip_148" type="car" depart="545.15" from="469995172#0" to="545162541#4" departLane="best"/>
  <trip id="trip_149" type="car" depart="550.23" from="-311487892#1" to="-545162541#0" departLane="best"/>
  <trip id="trip_150" type="car" depart="555.10" from="-896836750#0" to="896836752#4" departLane="best"/>
  <trip id="trip_151" type="car" depart="555.20" from="-489977602#2" to="311487892#1" departLane="best"/>
  <trip id="trip_152" type="car" depart="555.31" from="-545162541#2" to="489977602#5" departLane="best"/>
  <trip id="trip_153" type="car" depart="559.61" from="-489977602#5" to="896836752#0" departLane="best"/>
  <trip id="trip_154" type="car" depart="560.09" from="-489977602#2" to="-311487892#1" departLane="best"/>
  <trip id="trip_155" type="car" depart="565.41" from="311487892#0" to="-489977602#2" departLane="best"/>
  <trip id="trip_156" type="car" depart="566.76" from="774910119" to="896836750#1" departLane="best"/>
  <trip id="trip_157" type="car" depart="567.42" from="-545162541#1" to="-489977602#3" departLane="best"/>
  <trip id="trip_158" type="car" depart="569.09" from="-489977602#1" to="-311487892#2" departLane="best"/>
  <trip id="trip_159" type="car" depart="572.32" from="-545162541#2" to="429521999#0" departLane="best"/>
  <trip id="trip_160" type="car" depart="573.11" from="311487884#1" to="311487892#1" departLane="best"/>
  <trip id="trip_161" type="car" depart="583.08" from="429521999#0" to="-896836750#0" departLane="best"/>
  <trip id="trip_162" type="car" depart="589.80" from="-545162541#3" to="-1106590828" departLane="best"/>
  <trip id="trip_163" type="car" depart="592.69" from="545162541#2" to="-311487892#2" departLane="best"/>
  <trip id="trip_164" type="car" depart="594.46" from="774910109" to="896836752#0" departLane="best"/>
  <trip id="trip_165" type="car" depart="597.53" from="489977602#1" to="693882616#0" departLane="best"/>
  <trip id="trip_166" type="car" depart="598.91" from="-489977602#4" to="693882617#0" departLane="best"/>
  <trip id="trip_167" type="car" depart="600.72" from="-896836750#1" to="896836752#1" departLane="best"/>
  <trip id="trip_168" type="car" depart="602.11" from="693882617#0" to="774910117" departLane="best"/>
  <trip id="trip_169" type="car" depart="606.16" from="311487892#2" to="896836751#0" departLane="best"/>
  <trip id="trip_170" type="car" depart="609.36" from="-896836750#0" to="489977602#2" departLane="best"/>
  <trip id="trip_171" type="car" depart="618.74" from="-311487884#0" to="469995172#1" departLane="best"/>
  <trip id="trip_172" type="car" depart="627.13" from="774910117" to="469995172#0" departLane="best"/>
  <trip id="trip_173" type="car" depart="628.03" from="311487884#1" to="896836750#0" departLane="best"/>
  <trip id="trip_174" type="car" depart="630.25" from="-896836751#0" to="-896836750#0" departLane="best"/>
  <trip id="trip_175" type="car" depart="631.78" from="896836752#2" to="-896836751#1" departLane="best"/>
  <trip id="trip_176" type="car" depart="634.09" from="-774910112" to="693882616#1" departLane="best"/>
  <trip id="trip_177" type="car" depart="637.73" from="-774910112" to="-489977602#1" departLane="best"/>
  <trip id="trip_178" type="car" depart="639.75" from="429521998#1" to="-545162541#2" departLane="best"/>
  <trip id="trip_179" type="car" depart="642.51" from="489977602#1" to="-545162541#1" departLane="best"/>
  <trip id="trip_180" type="car" depart="645.64" from="774910119" to="-311487892#1" departLane="best"/>
  <trip id="trip_181" type="car" depart="645.68" from="896836752#2" to="-311487884#2" departLane="best"/>
  <trip id="trip_182" type="car" depart="648.95" from="489977602#3" to="429521999#1" departLane="best"/>
  <trip id="trip_183" type="car" depart="649.50" from="311487892#1" to="-311487884#1" departLane="best"/>
  <trip id="trip_184" type="car" depart="653.36" from="693882617#0" to="311487892#2" departLane="best"/>
  <trip id="trip_185" type="car" depart="655.49" from="896836752#2" to="-311487884#2" departLane="best"/>
  <trip id="trip_186" type="car" depart="661.96" from="429521999#0" to="489977602#5" departLane="best"/>
  <trip id="trip_187" type="car" depart="662.57" from="896836751#1" to="774910117" departLane="best"/>
  <trip id="trip_188" type="car" depart="670.72" from="545162541#1" to="774910118" departLane="best"/>
  <trip id="trip_189" type="car" depart="673.55" from="429521998#0" to="-545162541#3" departLane="best"/>
  <trip id="trip_190" type="car" depart="677.39" from="-311487892#0" to="-489977602#1" departLane="best"/>
  <trip id="trip_191" type="car" depart="678.53" from="-774910112" to="311487892#2" departLane="best"/>
  <trip id="trip_192" type="car" depart="685.48" from="774910109" to="545162541#3" departLane="best"/>
  <trip id="trip_193" type="car" depart="689.55" from="896836751#0" to="-896836751#0" departLane="best"/>
  <trip id="trip_194" type="car" depart="692.24" from="489977602#3" to="896836752#3" departLane="best"/>
  <trip id="trip_195" type="car" depart="699.97" from="545162541#4" to="896836752#3" departLane="best"/>
  <trip id="trip_196" type="car" depart="706.69" from="-489977602#2" to="311487884#2" departLane="best"/>
  <trip id="trip_197" type="car" depart="710.18" from="-545162541#4" to="311487884#2" departLane="best"/>
  <trip id="trip_198" type="car" depart="718.05" from="-545162541#3" to="545162541#4" departLane="best"/>
  <trip id="trip_199" type="car" depart="720.64" from="429521998#0" to="774910117" departLane="best"/>
  <trip id="trip_200" type="car" depart="725.73" from="-311487884#2" to="429521998#1" departLane="best"/>
  <trip id="trip_201" type="car" depart="732.01" from="311487884#1" to="311487884#2" departLane="best"/>
  <trip id="trip_202" type="car" depart="738.70" from="429521999#1" to="-489977602#5" departLane="best"/>
  <trip id="trip_203" type="car" depart="755.56" from="-545162541#1" to="311487884#0" departLane="best"/>
  <trip id="trip_204" type="car" depart="761.10" from="-311487892#0" to="176439259" departLane="best"/>
  <trip id="trip_205" type="car" depart="765.46" from="896836752#2" to="469995172#0" departLane="best"/>
  <trip id="trip_206" type="car" depart="772.45" from="311487892#0" to="693882617#1" departLane="best"/>
  <trip id="trip_207" type="car" depart="774.07" from="429521999#0" to="-311487892#0" departLane="best"/>
  <trip id="trip_208" type="car" depart="776.05" from="545162541#4" to="311487892#1" departLane="best"/>
  <trip id="trip_209" type="car" depart="776.67" from="-1106590828" to="311487892#0" departLane="best"/>
  <trip id="trip_210" type="car" depart="782.17" from="176439259" to="896836751#1" departLane="best"/>
  <trip id="trip_211" type="car" depart="783.72" from="-896836751#1" to="429521998#1" departLane="best"/>
  <trip id="trip_212" type="car" depart="787.83" from="-489977602#5" to="693882616#0" departLane="best"/>
  <trip id="trip_213" type="car" depart="789.55" from="545162541#2" to="489977602#3" departLane="best"/>
  <trip id="trip_214" type="car" depart="790.61" from="311487892#1" to="896836752#1" departLane="best"/>
  <trip id="trip_215" type="car" depart="793.59" from="896836751#1" to="545162541#4" departLane="best"/>
  <trip id="trip_216" type="car" depart="797.66" from="429521999#1" to="489977602#0" departLane="best"/>
  <trip id="trip_217" type="car" depart="797.75" from="-489977602#3" to="429521998#1" departLane="best"/>
  <trip id="trip_218" type="car" depart="803.65" from="896836752#1" to="489977602#2" departLane="best"/>
  <trip id="trip_219" type="car" depart="807.20" from="-311487892#1" to="489977602#1" departLane="best"/>
  <trip id="trip_220" type="car" depart="807.28" from="-774910112" to="774910112" departLane="best"/>
  <trip id="trip_221" type="car" depart="808.34" from="-489977602#2" to="489977602#4" departLane="best"/>
  <trip id="trip_222" type="car" depart="808.71" from="311487884#0" to="429521999#1" departLane="best"/>
  <trip id="trip_223" type="car" depart="815.55" from="774910117" to="-896836751#1" departLane="best"/>
  <trip id="trip_224" type="car" depart="819.16" from="896836752#4" to="896836752#3" departLane="best"/>
  <trip id="trip_225" type="car" depart="824.13" from="-311487884#1" to="-489977602#3" departLane="best"/>
  <trip id="trip_226" type="car" depart="835.88" from="896836752#4" to="-545162541#4" departLane="best"/>
  <trip id="trip_227" type="car" depart="837.44" from="-489977602#3" to="-311487892#2" departLane="best"/>
  <trip id="trip_228" type="car" depart="838.79" from="545162541#3" to="-311487884#1" departLane="best"/>
  <trip id="trip_229" type="car" depart="845.28" from="-545162541#0" to="-489977602#4" departLane="best"/>
  <trip id="trip_230" type="car" depart="848.80" from="774910119" to="489977602#4" departLane="best"/>
  <trip id="trip_231" type="car" depart="850.57" from="489977602#1" to="-545162541#4" departLane="best"/>
  <trip id="trip_232" type="car" depart="853.94" from="774910112" to="-489977602#5" departLane="best"/>
  <trip id="trip_233" type="car" depart="856.82" from="-489977602#1" to="896836742" departLane="best"/>
  <trip id="trip_234" type="car" depart="858.86" from="469995172#0" to="-545162541#1" departLane="best"/>
  <trip id="trip_235" type="car" depart="866.40" from="545162541#4" to="-311487884#0" departLane="best"/>
  <trip id="trip_236" type="car" depart="867.49" from="896836751#0" to="774910109" departLane="best"/>
  <trip id="trip_237" type="car" depart="868.88" from="-896836751#1" to="-489977602#2" departLane="best"/>
  <trip id="trip_238" type="car" depart="870.26" from="-489977602#5" to="469995172#0" departLane="best"/>
  <trip id="trip_239" type="car" depart="871.28" from="-545162541#3" to="429521999#0" departLane="best"/>
  <trip id="trip_240" type="car" depart="874.79" from="896836752#3" to="774910109" departLane="best"/>
  <trip id="trip_241" type="car" depart="875.55" from="774901658" to="896836752#2" departLane="best"/>
  <trip id="trip_242" type="car" depart="877.43" from="774910112" to="774910109" departLane="best"/>
  <trip id="trip_243" type="car" depart="879.11" from="693882616#1" to="-545162541#4" departLane="best"/>
  <trip id="trip_244" type="car" depart="880.13" from="311487884#0" to="-311487892#2" departLane="best"/>
  <trip id="trip_245" type="car" depart="891.88" from="-896836750#1" to="-311487892#0" departLane="best"/>
  <trip id="trip_246" type="car" depart="893.77" from="545162541#0" to="545162541#4" departLane="best"/>
  <trip id="trip_247" type="car" depart="895.16" from="489977602#0" to="-489977602#5" departLane="best"/>
  <trip id="trip_248" type="car" depart="905.05" from="311487892#1" to="429521999#1" departLane="best"/>
  <trip id="trip_249" type="car" depart="906.12" from="-489977602#1" to="489977602#3" departLane="best"/>
  <trip id="trip_250" type="car" depart="908.64" from="-489977602#3" to="469995172#0" departLane="best"/>
  <trip id="trip_251" type="car" depart="908.71" from="-896836751#1" to="896836750#1" departLane="best"/>
  <trip id="trip_252" type="car" depart="911.93" from="896836751#1" to="774910109" departLane="best"/>
  <trip id="trip_253" type="car" depart="916.05" from="-311487884#0" to="545162541#1" departLane="best"/>
  <trip id="trip_254" type="car" depart="917.00" from="896836752#3" to="-896836751#1" departLane="best"/>
  <trip id="trip_255" type="car" depart="925.09" from="311487892#1" to="-896836750#0" departLane="best"/>
  <trip id="trip_256" type="car" depart="933.09" from="774910109" to="693882617#1" departLane="best"/>
  <trip id="trip_257" type="car" depart="938.79" from="-545162541#4" to="-311487884#0" departLane="best"/>
  <trip id="trip_258" type="car" depart="938.83" from="311487884#1" to="-1105725032" departLane="best"/>
  <trip id="trip_259" type="car" depart="941.59" from="896836752#3" to="-1106590828" departLane="best"/>
  <trip id="trip_260" type="car" depart="941.62" from="489977602#2" to="429521999#1" departLane="best"/>
  <trip id="trip_261" type="car" depart="942.40" from="896836752#1" to="-545162541#1" departLane="best"/>
  <trip id="trip_262" type="car" depart="946.13" from="-311487884#2" to="693882617#1" departLane="best"/>
  <trip id="trip_263" type="car" depart="952.05" from="545162541#1" to="-1106590828" departLane="best"/>
  <trip id="trip_264" type="car" depart="952.08" from="-489977602#5" to="-545162541#3" departLane="best"/>
  <trip id="trip_265" type="car" depart="953.57" from="774901658" to="-545162541#4" departLane="best"/>
  <trip id="trip_266" type="car" depart="954.72" from="176439214#0" to="774910119" departLane="best"/>
  <trip id="trip_267" type="car" depart="954.73" from="-1105725032" to="545162541#0" departLane="best"/>
  <trip id="trip_268" type="car" depart="955.91" from="-311487884#1" to="774910109" departLane="best"/>
  <trip id="trip_269" type="car" depart="956.21" from="469995172#0" to="311487884#0" departLane="best"/>
  <trip id="trip_270" type="car" depart="960.19" from="489977602#4" to="896836750#0" departLane="best"/>
  <trip id="trip_271" type="car" depart="961.40" from="-311487892#1" to="1106590828" departLane="best"/>
  <trip id="trip_272" type="car" depart="962.44" from="429521998#1" to="896836752#3" departLane="best"/>
  <trip id="trip_273" type="car" depart="966.46" from="-896836751#1" to="-311487892#1" departLane="best"/>
  <trip id="trip_274" type="car" depart="975.94" from="896836752#2" to="774910109" departLane="best"/>
  <trip id="trip_275" type="car" depart="976.53" from="545162541#4" to="469995172#0" departLane="best"/>
  <trip id="trip_276" type="car" depart="978.17" from="429521998#0" to="311487884#0" departLane="best"/>
  <trip id="trip_277" type="car" depart="979.57" from="-311487892#1" to="-489977602#2" departLane="best"/>
  <trip id="trip_278" type="car" depart="987.52" from="896836751#0" to="-545162541#2" departLane="best"/>
  <trip id="trip_279" type="car" depart="988.40" from="489977602#2" to="693882616#1" departLane="best"/>
  <trip id="trip_280" type="car" depart="990.06" from="-489977602#0" to="-545162541#2" departLane="best"/>
  <trip id="trip_281" type="car" depart="990.55" from="545162541#3" to="429521999#0" departLane="best"/>
  <trip id="trip_282" type="car" depart="998.19" from="-545162541#4" to="-1105725032" departLane="best"/>
  <trip id="trip_283" type="car" depart="1000.70" from="-489977602#4" to="489977602#5" departLane="best"/>
  <trip id="trip_284" type="car" depart="1002.76" from="693882616#0" to="-896836751#0" departLane="best"/>