<?xml version="1.0" encoding="UTF-8"?>
<routes>
  <vType id="car" accel="2.6" decel="4.5" sigma="0.5" length="5.0" maxSpeed="70"/>

  <trip id="trip_0" type="car" depart="2301.94" from="-1167735737#0" to="896836751#0" departLane="best"/>
  <trip id="trip_1" type="car" depart="990.11" from="-896836742" to="-489977602#1" departLane="best"/>
  <trip id="trip_2" type="car" depart="2651.30" from="774910117" to="896836751#0" departLane="best"/>
  <trip id="trip_3" type="car" depart="3211.85" from="-311487884#1" to="545162541#2" departLane="best"/>
  <trip id="trip_4" type="car" depart="1518.92" from="-1167735737#0" to="-311487884#1" departLane="best"/>
  <trip id="trip_5" type="car" depart="787.10" from="469995172#0" to="545162541#4" departLane="best"/>
  <trip id="trip_6" type="car" depart="95.53" from="-545162541#3" to="896836742" departLane="best"/>
  <trip id="trip_7" type="car" depart="2339.58" from="489977602#2" to="208558280" departLane="best"/>
  <trip id="trip_8" type="car" depart="793.59" from="545162541#2" to="1167735736" departLane="best"/>
  <trip id="trip_9" type="car" depart="2913.95" from="-1105725032" to="896836752#1" departLane="best"/>
  <trip id="trip_10" type="car" depart="2900.95" from="896569113#1" to="311487884#0" departLane="best"/>
  <trip id="trip_11" type="car" depart="1224.90" from="-489977602#3" to="-774910112" departLane="best"/>
  <trip id="trip_12" type="car" depart="3445.97" from="1180776262#0" to="-311487892#0" departLane="best"/>
  <trip id="trip_13" type="car" depart="333.89" from="-311487884#2" to="1180776262#2" departLane="best"/>
  <trip id="trip_14" type="car" depart="3050.98" from="545162541#4" to="1105725032" departLane="best"/>
  <trip id="trip_15" type="car" depart="2905.66" from="896836750#1" to="311487892#1" departLane="best"/>
  <trip id="trip_16" type="car" depart="1930.42" from="1180923287#2" to="-311487884#0" departLane="best"/>
  <trip id="trip_17" type="car" depart="1987.35" from="693882617#0" to="693882616#1" departLane="best"/>
  <trip id="trip_18" type="car" depart="3187.63" from="1180923287#0" to="545162541#0" departLane="best"/>
  <trip id="trip_19" type="car" depart="692.24" from="-1167735739#1" to="-1167735737#2" departLane="best"/>
  <trip id="trip_20" type="car" depart="2380.55" from="896836752#2" to="1167735737#1" departLane="best"/>
  <trip id="trip_21" type="car" depart="3546.80" from="-896836750#0" to="-311487884#2" departLane="best"/>
  <trip id="trip_22" type="car" depart="1368.45" from="311487892#1" to="693882617#1" departLane="best"/>
  <trip id="trip_23" type="car" depart="3002.80" from="-489977602#4" to="1180923287#1" departLane="best"/>
  <trip id="trip_24" type="car" depart="1278.97" from="774910112" to="1106590828" departLane="best"/>
  <trip id="trip_25" type="car" depart="2526.55" from="774910118" to="774901658" departLane="best"/>
  <trip id="trip_26" type="car" depart="257.05" from="693882617#1" to="-489977602#5" departLane="best"/>
  <trip id="trip_27" type="car" depart="1922.90" from="-896836751#0" to="-489977602#4" departLane="best"/>
  <trip id="trip_28" type="car" depart="1664.14" from="1106590828" to="693882617#1" departLane="best"/>
  <trip id="trip_29" type="car" depart="2477.38" from="-896836742" to="774910118" departLane="best"/>
  <trip id="trip_30" type="car" depart="1167.42" from="896836752#2" to="896836752#3" departLane="best"/>
  <trip id="trip_31" type="car" depart="201.38" from="-1167735737#1" to="1167735739#0" departLane="best"/>
  <trip id="trip_32" type="car" depart="1444.19" from="-1167735739#1" to="-774910112" departLane="best"/>
  <trip id="trip_33" type="car" depart="3287.29" from="489977602#5" to="896836742" departLane="best"/>
  <trip id="trip_34" type="car" depart="1132.84" from="774910108" to="429521999#1" departLane="best"/>
  <trip id="trip_35" type="car" depart="1424.27" from="774901658" to="311487892#1" departLane="best"/>
  <trip id="trip_36" type="car" depart="514.34" from="-489977602#1" to="-896836751#0" departLane="best"/>
  <trip id="trip_37" type="car" depart="2681.96" from="489977602#1" to="1105725032" departLane="best"/>
  <trip id="trip_38" type="car" depart="2689.25" from="311487884#0" to="545162541#1" departLane="best"/>
  <trip id="trip_39" type="car" depart="1437.84" from="-896836742" to="-489977602#1" departLane="best"/>
  <trip id="trip_40" type="car" depart="1834.29" from="-311487884#1" to="896836752#0" departLane="best"/>
  <trip id="trip_41" type="car" depart="169.62" from="-311487892#1" to="-489977602#3" departLane="best"/>
  <trip id="trip_42" type="car" depart="2258.81" from="774910118" to="311487884#0" departLane="best"/>
  <trip id="trip_43" type="car" depart="2147.07" from="176439214#0" to="1180923287#2" departLane="best"/>
  <trip id="trip_44" type="car" depart="2145.20" from="311487892#2" to="489977602#0" departLane="best"/>
  <trip id="trip_45" type="car" depart="905.09" from="489977602#3" to="-1106590828" departLane="best"/>
  <trip id="trip_46" type="car" depart="2449.02" from="-311487892#1" to="774910118" departLane="best"/>
  <trip id="trip_47" type="car" depart="3185.24" from="896836752#0" to="1106590828" departLane="best"/>
  <trip id="trip_48" type="car" depart="2766.96" from="1180776262#0" to="-311487892#1" departLane="best"/>
  <trip id="trip_49" type="car" depart="1056.60" from="-489977602#4" to="311487892#1" departLane="best"/>
  <trip id="trip_50" type="car" depart="11.68" from="896836750#0" to="1105725032" departLane="best"/>
  <trip id="trip_51" type="car" depart="3498.80" from="896836752#1" to="-545162541#0" departLane="best"/>
  <trip id="trip_52" type="car" depart="1827.65" from="-311487892#0" to="693882617#0" departLane="best"/>
  <trip id="trip_53" type="car" depart="1074.40" from="693882617#1" to="469995172#0" departLane="best"/>
  <trip id="trip_54" type="car" depart="2192.29" from="-489977602#3" to="1180923287#1" departLane="best"/>
  <trip id="trip_55" type="car" depart="2745.04" from="489977602#2" to="896836752#3" departLane="best"/>
  <trip id="trip_56" type="car" depart="3320.76" from="-1105725032" to="545162541#3" departLane="best"/>
  <trip id="trip_57" type="car" depart="1166.96" from="-1167735736" to="-311487892#1" departLane="best"/>
  <trip id="trip_58" type="car" depart="3344.76" from="1167735738" to="-896836750#1" departLane="best"/>
  <trip id="trip_59" type="car" depart="208.53" from="489977602#5" to="-311487884#0" departLane="best"/>
  <trip id="trip_60" type="car" depart="308.35" from="429521999#0" to="-1167735739#1" departLane="best"/>
  <trip id="trip_61" type="car" depart="3520.74" from="489977602#1" to="896836752#2" departLane="best"/>
  <trip id="trip_62" type="car" depart="452.74" from="774910109" to="429521998#0" departLane="best"/>
  <trip id="trip_63" type="car" depart="3408.66" from="-489977602#5" to="1105725032" departLane="best"/>
  <trip id="trip_64" type="car" depart="1899.63" from="545162541#4" to="311487884#0" departLane="best"/>
  <trip id="trip_65" type="car" depart="3471.71" from="489977602#2" to="896836752#0" departLane="best"/>
  <trip id="trip_66" type="car" depart="2627.75" from="-545162541#3" to="896836742" departLane="best"/>
  <trip id="trip_67" type="car" depart="1122.18" from="774910112" to="774910108" departLane="best"/>
  <trip id="trip_68" type="car" depart="1344.31" from="489567380" to="311487892#0" departLane="best"/>
  <trip id="trip_69" type="car" depart="435.62" from="-896836742" to="-1167735739#1" departLane="best"/>
  <trip id="trip_70" type="car" depart="1217.11" from="545162541#2" to="489977602#3" departLane="best"/>
  <trip id="trip_71" type="car" depart="828.41" from="-896836742" to="-1105725032" departLane="best"/>
  <trip id="trip_72" type="car" depart="255.58" from="693882617#0" to="-1167735739#0" departLane="best"/>
  <trip id="trip_73" type="car" depart="824.19" from="-1167735737#1" to="1167735740" departLane="best"/>
  <trip id="trip_74" type="car" depart="255.09" from="-896836750#1" to="1167735736" departLane="best"/>
  <trip id="trip_75" type="car" depart="2408.32" from="-774910112" to="489977602#2" departLane="best"/>
  <trip id="trip_76" type="car" depart="476.32" from="545162541#0" to="429521998#0" departLane="best"/>
  <trip id="trip_77" type="car" depart="874.79" from="429521998#0" to="208558248" departLane="best"/>
  <trip id="trip_78" type="car" depart="685.48" from="-311487884#2" to="774910109" departLane="best"/>
  <trip id="trip_79" type="car" depart="1551.78" from="311487884#0" to="208558248" departLane="best"/>
  <trip id="trip_80" type="car" depart="1681.29" from="896836750#1" to="-1167735738" departLane="best"/>
  <trip id="trip_81" type="car" depart="2424.11" from="774901658" to="-311487884#2" departLane="best"/>
  <trip id="trip_82" type="car" depart="218.21" from="896836750#1" to="1180776262#0" departLane="best"/>
  <trip id="trip_83" type="car" depart="2882.13" from="-311487892#0" to="-896836751#0" departLane="best"/>
  <trip id="trip_84" type="car" depart="689.72" from="489977602#1" to="311487892#0" departLane="best"/>
  <trip id="trip_85" type="car" depart="504.66" from="-545162541#1" to="1167735736" departLane="best"/>
  <trip id="trip_86" type="car" depart="1665.46" from="-1167735740" to="311487884#2" departLane="best"/>
  <trip id="trip_87" type="car" depart="2908.88" from="489977602#3" to="-311487884#2" departLane="best"/>
  <trip id="trip_88" type="car" depart="182.12" from="489977602#2" to="-1106590828" departLane="best"/>
  <trip id="trip_89" type="car" depart="3488.39" from="896836752#0" to="-896836750#1" departLane="best"/>
  <trip id="trip_90" type="car" depart="598.72" from="429521999#0" to="429521998#1" departLane="best"/>
  <trip id="trip_91" type="car" depart="769.49" from="176439259" to="-1167735739#0" departLane="best"/>
  <trip id="trip_92" type="car" depart="592.69" from="-1105725032" to="176439214#0" departLane="best"/>
  <trip id="trip_93" type="car" depart="954.73" from="896836752#4" to="311487892#1" departLane="best"/>
  <trip id="trip_94" type="car" depart="1026.90" from="896569113#1" to="896836750#1" departLane="best"/>
  <trip id="trip_95" type="car" depart="3583.52" from="489977602#4" to="774910109" departLane="best"/>
  <trip id="trip_96" type="car" depart="2586.27" from="-489977602#3" to="-545162541#2" departLane="best"/>
  <trip id="trip_97" type="car" depart="1068.15" from="-1167735739#0" to="545162541#1" departLane="best"/>
  <trip id="trip_98" type="car" depart="2648.65" from="-1167735739#0" to="896836751#1" departLane="best"/>
  <trip id="trip_99" type="car" depart="1128.98" from="-1167735738" to="545162541#1" departLane="best"/>
  <trip id="trip_100" type="car" depart="1716.44" from="489977602#0" to="-489977602#4" departLane="best"/>
  <trip id="trip_101" type="car" depart="204.77" from="469995172#1" to="-311487884#0" departLane="best"/>
  <trip id="trip_102" type="car" depart="3064.83" from="-1167735739#1" to="545162541#3" departLane="best"/>
  <trip id="trip_103" type="car" depart="244.66" from="-896836750#1" to="176439259" departLane="best"/>
  <trip id="trip_104" type="car" depart="431.59" from="489977602#5" to="-896836751#0" departLane="best"/>
  <trip id="trip_105" type="car" depart="2084.11" from="-1167735737#2" to="693882616#1" departLane="best"/>
  <trip id="trip_106" type="car" depart="295.14" from="774910109" to="545162541#1" departLane="best"/>
  <trip id="trip_107" type="car" depart="2034.82" from="1167735739#0" to="1105725032" departLane="best"/>
  <trip id="trip_108" type="car" depart="735.33" from="896836742" to="1167735739#0" departLane="best"/>
  <trip id="trip_109" type="car" depart="859.27" from="176439214#1" to="-489977602#0" departLane="best"/>
  <trip id="trip_110" type="car" depart="2418.08" from="1167735737#2" to="311487892#1" departLane="best"/>
  <trip id="trip_111" type="car" depart="1138.24" from="896836752#0" to="-1167735740" departLane="best"/>
  <trip id="trip_112" type="car" depart="33.54" from="693882616#1" to="489977602#5" departLane="best"/>
  <trip id="trip_113" type="car" depart="3585.95" from="-1167735740" to="489977602#1" departLane="best"/>
  <trip id="trip_114" type="car" depart="767.36" from="1105725032" to="-489977602#0" departLane="best"/>
  <trip id="trip_115" type="car" depart="3359.73" from="-1167735739#1" to="-896836751#0" departLane="best"/>
  <trip id="trip_116" type="car" depart="1330.30" from="-489977602#4" to="311487884#2" departLane="best"/>
  <trip id="trip_117" type="car" depart="3001.48" from="896569113#2" to="1167735737#2" departLane="best"/>
  <trip id="trip_118" type="car" depart="2202.04" from="774910108" to="489977602#0" departLane="best"/>
  <trip id="trip_119" type="car" depart="28.16" from="489977602#3" to="1167735737#2" departLane="best"/>
  <trip id="trip_120" type="car" depart="3354.32" from="-311487892#0" to="-489977602#1" departLane="best"/>
  <trip id="trip_121" type="car" depart="952.08" from="-311487892#0" to="896836751#1" departLane="best"/>
  <trip id="trip_122" type="car" depart="1991.61" from="1106590828" to="1167735737#0" departLane="best"/>
  <trip id="trip_123" type="car" depart="2177.39" from="896836742" to="1180776262#0" departLane="best"/>
  <trip id="trip_124" type="car" depart="732.95" from="693882617#1" to="1105725032" departLane="best"/>
  <trip id="trip_125" type="car" depart="1819.47" from="-896836751#1" to="-1167735738" departLane="best"/>
  <trip id="trip_126" type="car" depart="332.27" from="311487884#0" to="1167735736" departLane="best"/>
  <trip id="trip_127" type="car" depart="158.71" from="1167735740" to="896836752#2" departLane="best"/>
  <trip id="trip_128" type="car" depart="470.95" from="1105725032" to="-489977602#4" departLane="best"/>
  <trip id="trip_129" type="car" depart="2668.43" from="489977602#3" to="896569113#2" departLane="best"/>
  <trip id="trip_130" type="car" depart="1539.67" from="-1106590828" to="-311487892#1" departLane="best"/>
  <trip id="trip_131" type="car" depart="270.88" from="774910119" to="-489977602#3" departLane="best"/>
  <trip id="trip_132" type="car" depart="1964.13" from="1180923287#1" to="545162541#1" departLane="best"/>
  <trip id="trip_133" type="car" depart="1989.09" from="311487884#1" to="-489977602#0" departLane="best"/>
  <trip id="trip_134" type="car" depart="150.58" from="1180923287#0" to="-1167735737#2" departLane="best"/>
  <trip id="trip_135" type="car" depart="3236.13" from="-545162541#4" to="774910118" departLane="best"/>
  <trip id="trip_136" type="car" depart="898.31" from="-311487892#0" to="1180776262#2" departLane="best"/>
  <trip id="trip_137" type="car" depart="2808.42" from="208558248" to="693882616#1" departLane="best"/>
  <trip id="trip_138" type="car" depart="2698.12" from="-896836750#1" to="-489977602#4" departLane="best"/>
  <trip id="trip_139" type="car" depart="3514.34" from="-545162541#0" to="208558248" departLane="best"/>
  <trip id="trip_140" type="car" depart="89.23" from="896836751#0" to="1167735740" departLane="best"/>
  <trip id="trip_141" type="car" depart="2816.59" from="208558248" to="774910112" departLane="best"/>
  <trip id="trip_142" type="car" depart="3110.63" from="-896836751#0" to="1106590828" departLane="best"/>
  <trip id="trip_143" type="car" depart="573.11" from="896569113#1" to="-311487892#0" departLane="best"/>
  <trip id="trip_144" type="car" depart="1377.15" from="-1167735737#1" to="429521998#0" departLane="best"/>
  <trip id="trip_145" type="car" depart="800.76" from="311487892#1" to="1180776262#1" departLane="best"/>
  <trip id="trip_146" type="car" depart="1098.69" from="-896836750#0" to="-896836742" departLane="best"/>
  <trip id="trip_147" type="car" depart="85.19" from="-545162541#2" to="176439259" departLane="best"/>
  <trip id="trip_148" type="car" depart="1181.74" from="-1167735739#1" to="896836752#2" departLane="best"/>
  <trip id="trip_149" type="car" depart="1004.85" from="774901658" to="469995172#1" departLane="best"/>
  <trip id="trip_150" type="car" depart="1438.84" from="489977602#1" to="1167735740" departLane="best"/>
  <trip id="trip_151" type="car" depart="3381.25" from="-311487892#1" to="1105725032" departLane="best"/>
  <trip id="trip_152" type="car" depart="642.84" from="1105725032" to="-1167735737#1" departLane="best"/>
  <trip id="trip_153" type="car" depart="390.25" from="311487884#1" to="1180776262#1" departLane="best"/>
  <trip id="trip_154" type="car" depart="2622.76" from="1167735739#0" to="311487884#1" departLane="best"/>
  <trip id="trip_155" type="car" depart="2182.35" from="469995172#1" to="-311487892#1" departLane="best"/>
  <trip id="trip_156" type="car" depart="1386.70" from="545162541#0" to="-545162541#2" departLane="best"/>
  <trip id="trip_157" type="car" depart="917.00" from="896569113#2" to="311487884#1" departLane="best"/>
  <trip id="trip_158" type="car" depart="6.09" from="489977602#1" to="774910118" departLane="best"/>
  <trip id="trip_159" type="car" depart="2589.95" from="896836751#0" to="774910112" departLane="best"/>
  <trip id="trip_160" type="car" depart="709.33" from="311487884#1" to="-1167735739#1" departLane="best"/>
  <trip id="trip_161" type="car" depart="3415.95" from="1167735740" to="693882616#1" departLane="best"/>
  <trip id="trip_162" type="car" depart="1130.10" from="-311487892#2" to="896836750#0" departLane="best"/>
  <trip id="trip_163" type="car" depart="3240.17" from="469995172#0" to="1167735738" departLane="best"/>
  <trip id="trip_164" type="car" depart="2400.81" from="1167735739#1" to="176439259" departLane="best"/>
  <trip id="trip_165" type="car" depart="2509.95" from="489977602#3" to="-489977602#0" departLane="best"/>
  <trip id="trip_166" type="car" depart="690.62" from="774910112" to="1180923287#2" departLane="best"/>
  <trip id="trip_167" type="car" depart="2438.34" from="-545162541#0" to="693882616#0" departLane="best"/>
  <trip id="trip_168" type="car" depart="2048.78" from="176439259" to="489977602#3" departLane="best"/>
  <trip id="trip_169" type="car" depart="3001.41" from="1167735737#2" to="1167735737#0" departLane="best"/>
  <trip id="trip_170" type="car" depart="756.66" from="896836752#4" to="545162541#1" departLane="best"/>
  <trip id="trip_171" type="car" depart="2183.98" from="1167735739#1" to="311487892#2" departLane="best"/>
  <trip id="trip_172" type="car" depart="1590.43" from="774910117" to="-774910112" departLane="best"/>
  <trip id="trip_173" type="car" depart="1840.23" from="896836751#0" to="-489977602#5" departLane="best"/>
  <trip id="trip_174" type="car" depart="2371.86" from="1167735737#0" to="469995172#1" departLane="best"/>
  <trip id="trip_175" type="car" depart="2389.87" from="693882616#1" to="1167735740" departLane="best"/>
  <trip id="trip_176" type="car" depart="336.19" from="896836752#0" to="-896836750#1" departLane="best"/>
  <trip id="trip_177" type="car" depart="2422.06" from="-896836742" to="-545162541#3" departLane="best"/>
  <trip id="trip_178" type="car" depart="530.47" from="-1167735737#2" to="-896836751#0" departLane="best"/>
  <trip id="trip_179" type="car" depart="3542.17" from="693882616#0" to="896836752#2" departLane="best"/>
  <trip id="trip_180" type="car" depart="262.18" from="208558280" to="693882617#0" departLane="best"/>
  <trip id="trip_181" type="car" depart="2072.42" from="896836742" to="896569113#1" departLane="best"/>
  <trip id="trip_182" type="car" depart="1382.32" from="176439259" to="-896836751#0" departLane="best"/>
  <trip id="trip_183" type="car" depart="531.26" from="774910119" to="-1105725032" departLane="best"/>
  <trip id="trip_184" type="car" depart="3213.58" from="896836752#2" to="-311487892#0" departLane="best"/>
  <trip id="trip_185" type="car" depart="2802.31" from="-896836742" to="-545162541#0" departLane="best"/>
  <trip id="trip_186" type="car" depart="2894.80" from="896569113#1" to="489567380" departLane="best"/>
  <trip id="trip_187" type="car" depart="1672.38" from="489977602#4" to="-896836751#0" departLane="best"/>
  <trip id="trip_188" type="car" depart="3302.89" from="-311487892#2" to="311487892#1" departLane="best"/>
  <trip id="trip_189" type="car" depart="480.02" from="311487892#2" to="774910112" departLane="best"/>
  <trip id="trip_190" type="car" depart="1912.07" from="489977602#4" to="545162541#3" departLane="best"/>
  <trip id="trip_191" type="car" depart="1142.27" from="896836752#0" to="311487884#2" departLane="best"/>
  <trip id="trip_192" type="car" depart="2205.55" from="896836750#0" to="469995172#0" departLane="best"/>
  <trip id="trip_193" type="car" depart="1536.27" from="489977602#3" to="311487892#0" departLane="best"/>
  <trip id="trip_194" type="car" depart="3229.95" from="896836751#1" to="429521998#0" departLane="best"/>
  <trip id="trip_195" type="car" depart="1620.25" from="896836752#0" to="-896836751#0" departLane="best"/>
  <trip id="trip_196" type="car" depart="3023.51" from="1167735736" to="896836752#2" departLane="best"/>
  <trip id="trip_197" type="car" depart="2799.63" from="429521999#0" to="693882617#0" departLane="best"/>
  <trip id="trip_198" type="car" depart="861.29" from="311487884#2" to="-1167735740" departLane="best"/>
  <trip id="trip_199" type="car" depart="2568.76" from="-896836750#1" to="1106590828" departLane="best"/>
  <trip id="trip_200" type="car" depart="1209.05" from="489977602#2" to="-311487884#0" departLane="best"/>
  <trip id="trip_201" type="car" depart="498.15" from="-896836750#0" to="176439214#0" departLane="best"/>
  <trip id="trip_202" type="car" depart="2498.22" from="896569113#2" to="-774910112" departLane="best"/>
  <trip id="trip_203" type="car" depart="231.22" from="208558248" to="1167735740" departLane="best"/>
  <trip id="trip_204" type="car" depart="1953.40" from="208558280" to="-1167735739#0" departLane="best"/>
  <trip id="trip_205" type="car" depart="744.60" from="208558280" to="176439214#0" departLane="best"/>
  <trip id="trip_206" type="car" depart="3257.42" from="545162541#1" to="896569113#1" departLane="best"/>
  <trip id="trip_207" type="car" depart="70.32" from="896836752#1" to="545162541#0" departLane="best"/>
  <trip id="trip_208" type="car" depart="1369.37" from="-1105725032" to="1180776262#2" departLane="best"/>
  <trip id="trip_209" type="car" depart="1075.01" from="176439214#0" to="208558280" departLane="best"/>
  <trip id="trip_210" type="car" depart="1937.59" from="896836751#0" to="489977602#2" departLane="best"/>
  <trip id="trip_211" type="car" depart="2879.53" from="-896836742" to="429521999#0" departLane="best"/>
  <trip id="trip_212" type="car" depart="789.92" from="311487884#1" to="429521999#0" departLane="best"/>
  <trip id="trip_213" type="car" depart="104.49" from="1180776262#0" to="774910112" departLane="best"/>
  <trip id="trip_214" type="car" depart="2444.91" from="176439259" to="896836750#0" departLane="best"/>
  <trip id="trip_215" type="car" depart="594.16" from="311487892#2" to="-489977602#0" departLane="best"/>
  <trip id="trip_216" type="car" depart="3530.60" from="489977602#1" to="-1167735737#0" departLane="best"/>
  <trip id="trip_217" type="car" depart="3264.94" from="545162541#2" to="489977602#5" departLane="best"/>
  <trip id="trip_218" type="car" depart="2386.80" from="-311487884#0" to="774901658" departLane="best"/>
  <trip id="trip_219" type="car" depart="1543.01" from="311487892#2" to="-545162541#1" departLane="best"/>
  <trip id="trip_220" type="car" depart="181.02" from="1180923287#2" to="1167735739#1" departLane="best"/>
  <trip id="trip_221" type="car" depart="761.98" from="1167735739#1" to="1180776262#0" departLane="best"/>
  <trip id="trip_222" type="car" depart="2740.43" from="1180923287#2" to="1167735736" departLane="best"/>
  <trip id="trip_223" type="car" depart="2707.24" from="208558280" to="-896836751#1" departLane="best"/>
  <trip id="trip_224" type="car" depart="3005.68" from="429521998#0" to="-1167735736" departLane="best"/>
  <trip id="trip_225" type="car" depart="2696.49" from="-1167735738" to="1180776262#1" departLane="best"/>
  <trip id="trip_226" type="car" depart="807.20" from="-1167735739#1" to="896836752#3" departLane="best"/>
  <trip id="trip_227" type="car" depart="3446.23" from="-1167735737#2" to="896836752#0" departLane="best"/>
  <trip id="trip_228" type="car" depart="111.71" from="-896836751#0" to="-545162541#3" departLane="best"/>
  <trip id="trip_229" type="car" depart="3021.22" from="693882616#1" to="-489977602#3" departLane="best"/>
  <trip id="trip_230" type="car" depart="858.76" from="429521998#0" to="774910112" departLane="best"/>
  <trip id="trip_231" type="car" depart="411.80" from="-774910112" to="311487892#2" departLane="best"/>
  <trip id="trip_232" type="car" depart="2518.07" from="896836752#2" to="1180923287#1" departLane="best"/>
  <trip id="trip_233" type="car" depart="604.04" from="545162541#4" to="896836751#1" departLane="best"/>
  <trip id="trip_234" type="car" depart="2586.09" from="896836752#3" to="-489977602#4" departLane="best"/>
  <trip id="trip_235" type="car" depart="3472.99" from="-311487892#0" to="545162541#1" departLane="best"/>
  <trip id="trip_236" type="car" depart="92.44" from="1167735738" to="545162541#0" departLane="best"/>
  <trip id="trip_237" type="car" depart="2438.45" from="1180923287#2" to="176439214#1" departLane="best"/>
  <trip id="trip_238" type="car" depart="3389.29" from="-545162541#3" to="-1167735740" departLane="best"/>
  <trip id="trip_239" type="car" depart="2131.55" from="693882617#0" to="-896836751#0" departLane="best"/>
  <trip id="trip_240" type="car" depart="366.84" from="896836752#2" to="1167735737#2" departLane="best"/>
  <trip id="trip_241" type="car" depart="3061.06" from="545162541#3" to="-311487892#2" departLane="best"/>
  <trip id="trip_242" type="car" depart="2866.42" from="489977602#5" to="896836752#4" departLane="best"/>
  <trip id="trip_243" type="car" depart="147.85" from="489977602#1" to="311487884#0" departLane="best"/>
  <trip id="trip_244" type="car" depart="2381.48" from="-1167735739#1" to="469995172#0" departLane="best"/>
  <trip id="trip_245" type="car" depart="2331.16" from="-1106590828" to="208558280" departLane="best"/>
  <trip id="trip_246" type="car" depart="2960.39" from="-311487892#0" to="311487884#1" departLane="best"/>
  <trip id="trip_247" type="car" depart="3458.84" from="693882617#1" to="311487892#1" departLane="best"/>
  <trip id="trip_248" type="car" depart="2546.31" from="311487884#1" to="-545162541#0" departLane="best"/>
  <trip id="trip_249" type="car" depart="2641.66" from="774910108" to="1106590828" departLane="best"/>
  <trip id="trip_250" type="car" depart="2217.28" from="489977602#1" to="896836752#3" departLane="best"/>
  <trip id="trip_251" type="car" depart="1740.59" from="311487884#1" to="896836750#1" departLane="best"/>
  <trip id="trip_252" type="car" depart="2132.91" from="1167735739#1" to="-896836751#0" departLane="best"/>
  <trip id="trip_253" type="car" depart="2990.63" from="-311487884#1" to="1167735736" departLane="best"/>
  <trip id="trip_254" type="car" depart="3173.87" from="-896836751#0" to="896836752#0" departLane="best"/>
  <trip id="trip_255" type="car" depart="1672.95" from="693882616#0" to="774910112" departLane="best"/>
  <trip id="trip_256" type="car" depart="1364.36" from="-1167735737#0" to="429521999#1" departLane="best"/>
  <trip id="trip_257" type="car" depart="3063.43" from="-545162541#1" to="429521999#0" departLane="best"/>
  <trip id="trip_258" type="car" depart="763.63" from="1105725032" to="1180776262#0" departLane="best"/>
  <trip id="trip_259" type="car" depart="1006.77" from="545162541#3" to="896569113#1" departLane="best"/>
  <trip id="trip_260" type="car" depart="3168.39" from="489977602#4" to="-1106590828" departLane="best"/>
  <trip id="trip_261" type="car" depart="1859.86" from="-545162541#2" to="-311487884#0" departLane="best"/>
  <trip id="trip_262" type="car" depart="868.88" from="208558248" to="429521999#0" departLane="best"/>
  <trip id="trip_263" type="car" depart="1998.63" from="-896836750#1" to="774910119" departLane="best"/>
  <trip id="trip_264" type="car" depart="1713.94" from="896836742" to="429521999#0" departLane="best"/>
  <trip id="trip_265" type="car" depart="1613.43" from="-1167735736" to="-311487884#1" departLane="best"/>
  <trip id="trip_266" type="car" depart="1059.25" from="176439259" to="774910119" departLane="best"/>
  <trip id="trip_267" type="car" depart="875.90" from="774910109" to="545162541#1" departLane="best"/>
  <trip id="trip_268" type="car" depart="1328.47" from="489977602#3" to="489977602#0" departLane="best"/>
  <trip id="trip_269" type="car" depart="1237.53" from="896836751#1" to="489977602#3" departLane="best"/>
  <trip id="trip_270" type="car" depart="1190.85" from="896569113#1" to="311487892#1" departLane="best"/>
  <trip id="trip_271" type="car" depart="975.30" from="-896836751#1" to="-896836750#0" departLane="best"/>
  <trip id="trip_272" type="car" depart="434.36" from="-545162541#2" to="1167735739#0" departLane="best"/>
  <trip id="trip_273" type="car" depart="430.40" from="489977602#1" to="896836752#1" departLane="best"/>
  <trip id="trip_274" type="car" depart="2484.59" from="-545162541#2" to="-774910112" departLane="best"/>
  <trip id="trip_275" type="car" depart="2658.98" from="1167735736" to="896836750#0" departLane="best"/>
  <trip id="trip_276" type="car" depart="2122.51" from="896836752#1" to="489977602#0" departLane="best"/>
  <trip id="trip_277" type="car" depart="2148.45" from="-311487884#2" to="-545162541#2" departLane="best"/>
  <trip id="trip_278" type="car" depart="1066.49" from="1180923287#0" to="-545162541#0" departLane="best"/>
  <trip id="trip_279" type="car" depart="1088.16" from="896569113#2" to="489977602#1" departLane="best"/>
  <trip id="trip_280" type="car" depart="455.70" from="-1167735737#2" to="-1167735738" departLane="best"/>
  <trip id="trip_281" type="car" depart="1992.09" from="896569113#1" to="-489977602#0" departLane="best"/>
  <trip id="trip_282" type="car" depart="2296.33" from="896836752#0" to="429521999#0" departLane="best"/>