<?xml version="1.0" encoding="UTF-8"?>
<routes>
  <vType id="car" accel="2.6" decel="4.5" sigma="0.5" length="5.0" maxSpeed="70"/>

  <trip id="trip_0" type="car" depart="2301.94" from="-311487884#1" to="311487892#2" departLane="best"/>
  <trip id="trip_1" type="car" depart="881.61" from="-545162541#3" to="-489977602#5" departLane="best"/>
  <trip id="trip_2" type="car" depart="2436.12" from="896836751#1" to="-489977602#3" departLane="best"/>
  <trip id="trip_3" type="car" depart="2125.77" from="-311487884#2" to="-311487884#1" departLane="best"/>
  <trip id="trip_4" type="car" depart="337.30" from="176439259" to="774910119" departLane="best"/>
  <trip id="trip_5" type="car" depart="2167.27" from="896836752#1" to="1105725032" departLane="best"/>
  <trip id="trip_6" type="car" depart="2577.67" from="896836751#1" to="545162541#4" departLane="best"/>
  <trip id="trip_7" type="car" depart="793.59" from="311487892#2" to="-1105725032" departLane="best"/>
  <trip id="trip_8" type="car" depart="2731.71" from="-896836742" to="693882616#0" departLane="best"/>
  <trip id="trip_9" type="car" depart="1224.90" from="-774910112" to="176439214#0" departLane="best"/>
  <trip id="trip_10" type="car" depart="3445.97" from="489977602#0" to="-489977602#5" departLane="best"/>
  <trip id="trip_11" type="car" depart="333.89" from="-489977602#4" to="489977602#2" departLane="best"/>
  <trip id="trip_12" type="car" depart="3050.98" from="311487892#0" to="-311487892#0" departLane="best"/>
  <trip id="trip_13" type="car" depart="2627.03" from="896836751#0" to="-545162541#1" departLane="best"/>
  <trip id="trip_14" type="car" depart="3503.22" from="489977602#5" to="-489977602#2" departLane="best"/>
  <trip id="trip_15" type="car" depart="1987.35" from="489977602#3" to="896836752#3" departLane="best"/>
  <trip id="trip_16" type="car" depart="692.24" from="-489977602#0" to="-311487892#0" departLane="best"/>
  <trip id="trip_17" type="car" depart="2380.55" from="429521998#1" to="-489977602#2" departLane="best"/>
  <trip id="trip_18" type="car" depart="3079.14" from="-489977602#4" to="489977602#5" departLane="best"/>
  <trip id="trip_19" type="car" depart="1000.70" from="489977602#3" to="-896836742" departLane="best"/>
  <trip id="trip_20" type="car" depart="1332.65" from="1106590828" to="311487892#1" departLane="best"/>
  <trip id="trip_21" type="car" depart="2526.55" from="-489977602#1" to="-896836750#0" departLane="best"/>
  <trip id="trip_22" type="car" depart="1922.90" from="311487884#1" to="-896836742" departLane="best"/>
  <trip id="trip_23" type="car" depart="1664.14" from="311487892#1" to="896836752#1" departLane="best"/>
  <trip id="trip_24" type="car" depart="790.61" from="469995172#1" to="-311487892#2" departLane="best"/>
  <trip id="trip_25" type="car" depart="824.57" from="-311487884#2" to="469995172#0" departLane="best"/>
  <trip id="trip_26" type="car" depart="1444.19" from="-489977602#0" to="176439214#0" departLane="best"/>
  <trip id="trip_27" type="car" depart="3287.29" from="896836752#2" to="469995172#0" departLane="best"/>
  <trip id="trip_28" type="car" depart="765.46" from="774910118" to="545162541#1" departLane="best"/>
  <trip id="trip_29" type="car" depart="3184.86" from="774901658" to="-545162541#4" departLane="best"/>
  <trip id="trip_30" type="car" depart="953.57" from="311487884#1" to="896836752#1" departLane="best"/>
  <trip id="trip_31" type="car" depart="1940.32" from="896836752#4" to="693882616#0" departLane="best"/>
  <trip id="trip_32" type="car" depart="3232.16" from="545162541#2" to="489977602#3" departLane="best"/>
  <trip id="trip_33" type="car" depart="789.55" from="-545162541#3" to="896836742" departLane="best"/>
  <trip id="trip_34" type="car" depart="1776.66" from="-311487892#1" to="-545162541#0" departLane="best"/>
  <trip id="trip_35" type="car" depart="550.23" from="-896836742" to="693882616#0" departLane="best"/>
  <trip id="trip_36" type="car" depart="2147.07" from="545162541#0" to="489977602#5" departLane="best"/>
  <trip id="trip_37" type="car" depart="2145.20" from="774910108" to="896836750#1" departLane="best"/>
  <trip id="trip_38" type="car" depart="905.09" from="896836752#0" to="-1106590828" departLane="best"/>
  <trip id="trip_39" type="car" depart="2449.02" from="-545162541#0" to="896836751#0" departLane="best"/>
  <trip id="trip_40" type="car" depart="2703.16" from="489977602#0" to="-545162541#0" departLane="best"/>
  <trip id="trip_41" type="car" depart="1056.60" from="-896836742" to="774901658" departLane="best"/>
  <trip id="trip_42" type="car" depart="11.68" from="311487892#0" to="774910119" departLane="best"/>
  <trip id="trip_43" type="car" depart="2743.06" from="774910119" to="-489977602#5" departLane="best"/>
  <trip id="trip_44" type="car" depart="3133.87" from="429521999#0" to="774910119" departLane="best"/>
  <trip id="trip_45" type="car" depart="2192.29" from="-774910112" to="489977602#4" departLane="best"/>
  <trip id="trip_46" type="car" depart="2745.04" from="896836751#1" to="896836750#1" departLane="best"/>
  <trip id="trip_47" type="car" depart="3306.58" from="469995172#1" to="774910117" departLane="best"/>
  <trip id="trip_48" type="car" depart="70.12" from="489977602#3" to="429521999#1" departLane="best"/>
  <trip id="trip_49" type="car" depart="862.03" from="311487884#0" to="896836752#2" departLane="best"/>
  <trip id="trip_50" type="car" depart="3409.02" from="-489977602#2" to="774910117" departLane="best"/>
  <trip id="trip_51" type="car" depart="2937.68" from="896836751#0" to="-545162541#2" departLane="best"/>
  <trip id="trip_52" type="car" depart="462.21" from="774910109" to="896836752#0" departLane="best"/>
  <trip id="trip_53" type="car" depart="594.46" from="896836750#1" to="693882616#0" departLane="best"/>
  <trip id="trip_54" type="car" depart="3471.71" from="896836751#1" to="1105725032" departLane="best"/>
  <trip id="trip_55" type="car" depart="2566.62" from="545162541#2" to="489977602#4" departLane="best"/>
  <trip id="trip_56" type="car" depart="1577.16" from="896836750#0" to="693882617#1" departLane="best"/>
  <trip id="trip_57" type="car" depart="435.62" from="176439214#1" to="-489977602#0" departLane="best"/>
  <trip id="trip_58" type="car" depart="1217.11" from="896836752#0" to="176439259" departLane="best"/>
  <trip id="trip_59" type="car" depart="2118.38" from="-1105725032" to="-489977602#1" departLane="best"/>
  <trip id="trip_60" type="car" depart="2548.23" from="-311487892#2" to="176439259" departLane="best"/>
  <trip id="trip_61" type="car" depart="242.64" from="-311487884#2" to="489567380" departLane="best"/>
  <trip id="trip_62" type="car" depart="255.09" from="311487884#0" to="311487892#2" departLane="best"/>
  <trip id="trip_63" type="car" depart="2408.32" from="176439214#0" to="896836751#1" departLane="best"/>
  <trip id="trip_64" type="car" depart="476.32" from="896836752#3" to="774910109" departLane="best"/>
  <trip id="trip_65" type="car" depart="874.79" from="774910109" to="545162541#3" departLane="best"/>
  <trip id="trip_66" type="car" depart="685.48" from="-489977602#4" to="693882616#1" departLane="best"/>
  <trip id="trip_67" type="car" depart="1275.47" from="545162541#3" to="774910108" departLane="best"/>
  <trip id="trip_68" type="car" depart="3109.81" from="-311487892#1" to="-489977602#4" departLane="best"/>
  <trip id="trip_69" type="car" depart="218.21" from="489977602#0" to="-489977602#5" departLane="best"/>
  <trip id="trip_70" type="car" depart="895.16" from="-896836751#1" to="896836751#0" departLane="best"/>
  <trip id="trip_71" type="car" depart="1615.01" from="693882616#0" to="-896836751#0" departLane="best"/>
  <trip id="trip_72" type="car" depart="1002.76" from="311487884#1" to="-489977602#1" departLane="best"/>
  <trip id="trip_73" type="car" depart="1595.27" from="896836752#0" to="-489977602#4" departLane="best"/>
  <trip id="trip_74" type="car" depart="182.12" from="896836751#1" to="-1106590828" departLane="best"/>
  <trip id="trip_75" type="car" depart="3488.39" from="311487884#0" to="-896836750#0" departLane="best"/>
  <trip id="trip_76" type="car" depart="1463.09" from="774910112" to="176439214#0" departLane="best"/>
  <trip id="trip_77" type="car" depart="3112.74" from="-311487892#2" to="-896836750#0" departLane="best"/>
  <trip id="trip_78" type="car" depart="1364.30" from="545162541#0" to="311487892#0" departLane="best"/>
  <trip id="trip_79" type="car" depart="3335.47" from="774901658" to="429521998#0" departLane="best"/>
  <trip id="trip_80" type="car" depart="1522.83" from="896836752#1" to="774910117" departLane="best"/>
  <trip id="trip_81" type="car" depart="557.27" from="429521998#1" to="176439214#0" departLane="best"/>
  <trip id="trip_82" type="car" depart="3487.35" from="896836752#4" to="896836751#1" departLane="best"/>
  <trip id="trip_83" type="car" depart="219.45" from="469995172#0" to="-311487892#2" departLane="best"/>
  <trip id="trip_84" type="car" depart="180.51" from="774910112" to="774910119" departLane="best"/>
  <trip id="trip_85" type="car" depart="3309.79" from="896836750#1" to="-896836742" departLane="best"/>
  <trip id="trip_86" type="car" depart="204.77" from="896836742" to="-489977602#2" departLane="best"/>
  <trip id="trip_87" type="car" depart="3064.83" from="-489977602#0" to="311487884#0" departLane="best"/>
  <trip id="trip_88" type="car" depart="1453.59" from="896836752#2" to="311487884#1" departLane="best"/>
  <trip id="trip_89" type="car" depart="2084.11" from="-311487892#0" to="-489977602#2" departLane="best"/>
  <trip id="trip_90" type="car" depart="1509.21" from="896836752#4" to="896836752#2" departLane="best"/>
  <trip id="trip_91" type="car" depart="1882.02" from="311487892#0" to="1106590828" departLane="best"/>
  <trip id="trip_92" type="car" depart="2411.01" from="469995172#0" to="311487884#0" departLane="best"/>
  <trip id="trip_93" type="car" depart="956.21" from="-545162541#2" to="429521999#0" departLane="best"/>
  <trip id="trip_94" type="car" depart="1646.01" from="-489977602#1" to="-1106590828" departLane="best"/>
  <trip id="trip_95" type="car" depart="1649.83" from="896836752#2" to="-489977602#4" departLane="best"/>
  <trip id="trip_96" type="car" depart="263.74" from="176439214#0" to="774910119" departLane="best"/>
  <trip id="trip_97" type="car" depart="954.72" from="489977602#1" to="-489977602#0" departLane="best"/>
  <trip id="trip_98" type="car" depart="3165.37" from="489977602#4" to="429521998#0" departLane="best"/>
  <trip id="trip_99" type="car" depart="567.89" from="896836751#1" to="429521999#0" departLane="best"/>
  <trip id="trip_100" type="car" depart="2202.04" from="896836750#1" to="-1106590828" departLane="best"/>
  <trip id="trip_101" type="car" depart="2404.31" from="896836752#0" to="429521999#0" departLane="best"/>
  <trip id="trip_102" type="car" depart="3354.32" from="-489977602#5" to="-545162541#3" departLane="best"/>
  <trip id="trip_103" type="car" depart="952.08" from="-489977602#5" to="896836752#0" departLane="best"/>
  <trip id="trip_104" type="car" depart="559.61" from="429521998#0" to="1106590828" departLane="best"/>
  <trip id="trip_105" type="car" depart="2583.40" from="1106590828" to="311487892#0" departLane="best"/>
  <trip id="trip_106" type="car" depart="1819.47" from="311487884#2" to="-311487892#1" departLane="best"/>
  <trip id="trip_107" type="car" depart="332.27" from="693882616#0" to="311487892#2" departLane="best"/>
  <trip id="trip_108" type="car" depart="158.71" from="489567380" to="-545162541#2" departLane="best"/>
  <trip id="trip_109" type="car" depart="2293.61" from="311487892#0" to="-896836742" departLane="best"/>
  <trip id="trip_110" type="car" depart="2668.43" from="896836752#0" to="693882616#0" departLane="best"/>
  <trip id="trip_111" type="car" depart="2019.26" from="-545162541#0" to="-489977602#1" departLane="best"/>
  <trip id="trip_112" type="car" depart="3402.18" from="-774910112" to="896836751#1" departLane="best"/>
  <trip id="trip_113" type="car" depart="129.70" from="489977602#4" to="896836752#4" departLane="best"/>
  <trip id="trip_114" type="car" depart="1989.09" from="693882616#1" to="-545162541#2" departLane="best"/>
  <trip id="trip_115" type="car" depart="150.58" from="489977602#3" to="-311487892#0" departLane="best"/>
  <trip id="trip_116" type="car" depart="3236.13" from="1106590828" to="311487884#1" departLane="best"/>
  <trip id="trip_117" type="car" depart="2400.96" from="489977602#2" to="896836752#1" departLane="best"/>
  <trip id="trip_118" type="car" depart="3182.88" from="545162541#3" to="-774910112" departLane="best"/>
  <trip id="trip_119" type="car" depart="3332.75" from="311487884#0" to="-896836742" departLane="best"/>
  <trip id="trip_120" type="car" depart="3514.34" from="-896836750#1" to="545162541#3" departLane="best"/>
  <trip id="trip_121" type="car" depart="89.23" from="489567380" to="545162541#3" departLane="best"/>
  <trip id="trip_122" type="car" depart="2888.05" from="311487884#1" to="311487892#1" departLane="best"/>
  <trip id="trip_123" type="car" depart="573.11" from="-489977602#5" to="489977602#5" departLane="best"/>
  <trip id="trip_124" type="car" depart="3139.80" from="774910109" to="176439214#1" departLane="best"/>
  <trip id="trip_125" type="car" depart="718.46" from="774901658" to="489977602#1" departLane="best"/>
  <trip id="trip_126" type="car" depart="1098.69" from="176439259" to="176439214#1" departLane="best"/>
  <trip id="trip_127" type="car" depart="85.19" from="-896836751#1" to="545162541#2" departLane="best"/>
  <trip id="trip_128" type="car" depart="1181.74" from="-489977602#0" to="311487892#2" departLane="best"/>
  <trip id="trip_129" type="car" depart="1264.13" from="896836742" to="545162541#2" departLane="best"/>
  <trip id="trip_130" type="car" depart="2446.27" from="896836751#0" to="489567380" departLane="best"/>
  <trip id="trip_131" type="car" depart="3381.25" from="-545162541#0" to="311487892#0" departLane="best"/>
  <trip id="trip_132" type="car" depart="642.84" from="311487892#0" to="-311487884#2" departLane="best"/>
  <trip id="trip_133" type="car" depart="390.25" from="693882616#1" to="489977602#1" departLane="best"/>
  <trip id="trip_134" type="car" depart="2622.76" from="469995172#0" to="693882616#1" departLane="best"/>
  <trip id="trip_135" type="car" depart="2182.35" from="896836742" to="-545162541#0" departLane="best"/>
  <trip id="trip_136" type="car" depart="1386.70" from="896836752#3" to="-896836751#1" departLane="best"/>
  <trip id="trip_137" type="car" depart="917.00" from="693882616#1" to="-1105725032" departLane="best"/>
  <trip id="trip_138" type="car" depart="1871.71" from="896836751#0" to="1105725032" departLane="best"/>
  <trip id="trip_139" type="car" depart="1311.20" from="-489977602#0" to="489567380" departLane="best"/>
  <trip id="trip_140" type="car" depart="2243.36" from="-545162541#1" to="429521999#0" departLane="best"/>
  <trip id="trip_141" type="car" depart="1825.64" from="545162541#3" to="469995172#1" departLane="best"/>
  <trip id="trip_142" type="car" depart="1448.64" from="429521998#1" to="896836752#0" departLane="best"/>
  <trip id="trip_143" type="car" depart="458.24" from="545162541#4" to="489977602#5" departLane="best"/>
  <trip id="trip_144" type="car" depart="2438.34" from="-896836750#1" to="896836752#2" departLane="best"/>
  <trip id="trip_145" type="car" depart="1083.42" from="896836752#0" to="-1105725032" departLane="best"/>
  <trip id="trip_146" type="car" depart="1093.95" from="1106590828" to="693882616#1" departLane="best"/>
  <trip id="trip_147" type="car" depart="2828.73" from="469995172#1" to="774910108" departLane="best"/>
  <trip id="trip_148" type="car" depart="1590.43" from="176439214#0" to="896836742" departLane="best"/>
  <trip id="trip_149" type="car" depart="1703.47" from="-896836750#0" to="-489977602#2" departLane="best"/>
  <trip id="trip_150" type="car" depart="1021.63" from="489567380" to="-489977602#3" departLane="best"/>
  <trip id="trip_151" type="car" depart="2946.32" from="311487884#0" to="429521999#1" departLane="best"/>
  <trip id="trip_152" type="car" depart="808.71" from="1105725032" to="-545162541#4" departLane="best"/>
  <trip id="trip_153" type="car" depart="87.93" from="311487884#1" to="774910109" departLane="best"/>
  <trip id="trip_154" type="car" depart="2200.59" from="-489977602#1" to="774901658" departLane="best"/>
  <trip id="trip_155" type="car" depart="1491.99" from="896836752#3" to="-896836751#1" departLane="best"/>
  <trip id="trip_156" type="car" depart="2586.05" from="545162541#0" to="774910118" departLane="best"/>
  <trip id="trip_157" type="car" depart="1438.75" from="-545162541#4" to="-1105725032" departLane="best"/>
  <trip id="trip_158" type="car" depart="3213.58" from="-489977602#5" to="693882616#0" departLane="best"/>
  <trip id="trip_159" type="car" depart="787.83" from="896836750#0" to="774910108" departLane="best"/>
  <trip id="trip_160" type="car" depart="180.79" from="311487884#1" to="-545162541#1" departLane="best"/>
  <trip id="trip_161" type="car" depart="1643.26" from="774910108" to="896836750#1" departLane="best"/>
  <trip id="trip_162" type="car" depart="3556.41" from="469995172#0" to="693882617#0" departLane="best"/>
  <trip id="trip_163" type="car" depart="2205.55" from="774910119" to="693882616#0" departLane="best"/>
  <trip id="trip_164" type="car" depart="2990.05" from="896836752#0" to="693882617#1" departLane="best"/>
  <trip id="trip_165" type="car" depart="3229.95" from="774910109" to="693882617#1" departLane="best"/>
  <trip id="trip_166" type="car" depart="933.09" from="311487884#1" to="311487892#2" departLane="best"/>
  <trip id="trip_167" type="car" depart="2756.93" from="896836750#0" to="774910117" departLane="best"/>
  <trip id="trip_168" type="car" depart="2256.29" from="311487892#2" to="693882617#0" departLane="best"/>
  <trip id="trip_169" type="car" depart="278.94" from="429521998#0" to="311487884#0" departLane="best"/>
  <trip id="trip_170" type="car" depart="978.17" from="469995172#0" to="896836751#1" departLane="best"/>
  <trip id="trip_171" type="car" depart="290.08" from="-774910112" to="176439259" departLane="best"/>
  <trip id="trip_172" type="car" depart="1378.93" from="-774910112" to="176439214#0" departLane="best"/>
  <trip id="trip_173" type="car" depart="231.22" from="545162541#3" to="489567380" departLane="best"/>
  <trip id="trip_174" type="car" depart="1953.40" from="545162541#4" to="-311487892#2" departLane="best"/>
  <trip id="trip_175" type="car" depart="744.60" from="545162541#4" to="545162541#0" departLane="best"/>
  <trip id="trip_176" type="car" depart="3257.42" from="896836752#4" to="-311487884#0" departLane="best"/>
  <trip id="trip_177" type="car" depart="3084.24" from="896836752#3" to="489977602#5" departLane="best"/>
  <trip id="trip_178" type="car" depart="1717.13" from="489977602#2" to="429521999#0" departLane="best"/>
  <trip id="trip_179" type="car" depart="2712.51" from="545162541#4" to="896836751#0" departLane="best"/>
  <trip id="trip_180" type="car" depart="2691.06" from="896836751#1" to="176439214#1" departLane="best"/>
  <trip id="trip_181" type="car" depart="1757.63" from="311487892#1" to="693882616#1" departLane="best"/>
  <trip id="trip_182" type="car" depart="1748.31" from="545162541#0" to="489977602#0" departLane="best"/>
  <trip id="trip_183" type="car" depart="2407.95" from="545162541#2" to="-896836750#0" departLane="best"/>
  <trip id="trip_184" type="car" depart="3025.82" from="-545162541#2" to="896836751#0" departLane="best"/>
  <trip id="trip_185" type="car" depart="97.08" from="545162541#1" to="896836752#2" departLane="best"/>
  <trip id="trip_186" type="car" depart="2386.80" from="-489977602#2" to="693882616#0" departLane="best"/>
  <trip id="trip_187" type="car" depart="488.52" from="774910108" to="-896836751#0" departLane="best"/>
  <trip id="trip_188" type="car" depart="181.02" from="489977602#5" to="469995172#1" departLane="best"/>
  <trip id="trip_189" type="car" depart="761.98" from="469995172#1" to="489977602#0" departLane="best"/>
  <trip id="trip_190" type="car" depart="2740.43" from="489977602#5" to="311487892#2" departLane="best"/>
  <trip id="trip_191" type="car" depart="2707.24" from="545162541#4" to="311487884#2" departLane="best"/>
  <trip id="trip_192" type="car" depart="3005.68" from="774910109" to="-311487884#0" departLane="best"/>
  <trip id="trip_193" type="car" depart="2696.49" from="-311487892#1" to="489977602#1" departLane="best"/>
  <trip id="trip_194" type="car" depart="807.20" from="-489977602#0" to="-311487892#0" departLane="best"/>
  <trip id="trip_195" type="car" depart="2715.24" from="311487884#1" to="1105725032" departLane="best"/>
  <trip id="trip_196" type="car" depart="3021.22" from="-774910112" to="311487884#0" departLane="best"/>
  <trip id="trip_197" type="car" depart="454.40" from="-545162541#0" to="896836752#2" departLane="best"/>
  <trip id="trip_198" type="car" depart="3411.93" from="774910108" to="311487884#2" departLane="best"/>
  <trip id="trip_199" type="car" depart="2760.83" from="-896836750#0" to="-545162541#0" departLane="best"/>
  <trip id="trip_200" type="car" depart="2800.05" from="-896836742" to="429521999#1" departLane="best"/>
  <trip id="trip_201" type="car" depart="389.16" from="-311487884#1" to="429521999#1" departLane="best"/>
  <trip id="trip_202" type="car" depart="2072.87" from="489977602#5" to="545162541#1" departLane="best"/>
  <trip id="trip_203" type="car" depart="3389.29" from="1105725032" to="-489977602#1" departLane="best"/>
  <trip id="trip_204" type="car" depart="2131.55" from="311487884#1" to="-489977602#5" departLane="best"/>
  <trip id="trip_205" type="car" depart="2509.89" from="429521999#0" to="-545162541#1" departLane="best"/>
  <trip id="trip_206" type="car" depart="2866.42" from="896836752#2" to="-311487892#0" departLane="best"/>
  <trip id="trip_207" type="car" depart="1249.93" from="693882616#0" to="489977602#4" departLane="best"/>
  <trip id="trip_208" type="car" depart="248.24" from="489977602#0" to="-1106590828" departLane="best"/>
  <trip id="trip_209" type="car" depart="3058.47" from="774910117" to="-489977602#5" departLane="best"/>
  <trip id="trip_210" type="car" depart="1560.68" from="489977602#3" to="774901658" departLane="best"/>
  <trip id="trip_211" type="car" depart="2546.31" from="693882616#1" to="-896836750#1" departLane="best"/>
  <trip id="trip_212" type="car" depart="2641.66" from="311487892#1" to="896836751#0" departLane="best"/>
  <trip id="trip_213" type="car" depart="2788.71" from="774910108" to="693882616#1" departLane="best"/>
  <trip id="trip_214" type="car" depart="2972.64" from="311487892#1" to="469995172#1" departLane="best"/>
  <trip id="trip_215" type="car" depart="3066.17" from="-489977602#3" to="311487892#2" departLane="best"/>
  <trip id="trip_216" type="car" depart="3173.87" from="311487884#1" to="774910108" departLane="best"/>
  <trip id="trip_217" type="car" depart="2051.46" from="489977602#5" to="489977602#0" departLane="best"/>
  <trip id="trip_218" type="car" depart="103.32" from="469995172#1" to="-896836751#0" departLane="best"/>
  <trip id="trip_219" type="car" depart="1755.18" from="489977602#2" to="311487892#0" departLane="best"/>
  <trip id="trip_220" type="car" depart="1225.22" from="311487892#2" to="896836752#1" departLane="best"/>
  <trip id="trip_221" type="car" depart="36.54" from="-896836751#1" to="-489977602#2" departLane="best"/>
  <trip id="trip_222" type="car" depart="868.88" from="545162541#3" to="774910117" departLane="best"/>
  <trip id="trip_223" type="car" depart="1998.63" from="311487884#0" to="774910109" departLane="best"/>
  <trip id="trip_224" type="car" depart="2325.25" from="774910117" to="693882617#1" departLane="best"/>
  <trip id="trip_225" type="car" depart="2854.56" from="-489977602#3" to="429521998#1" departLane="best"/>
  <trip id="trip_226" type="car" depart="797.75" from="311487884#1" to="429521999#1" departLane="best"/>
  <trip id="trip_227" type="car" depart="2390.26" from="489977602#4" to="774910109" departLane="best"/>
  <trip id="trip_228" type="car" depart="1992.50" from="489977602#1" to="693882616#0" departLane="best"/>
  <trip id="trip_229" type="car" depart="3587.87" from="896836752#0" to="489567380" departLane="best"/>
  <trip id="trip_230" type="car" depart="1266.52" from="774901658" to="311487892#1" departLane="best"/>
  <trip id="trip_231" type="car" depart="1103.84" from="176439259" to="-545162541#1" departLane="best"/>
  <trip id="trip_232" type="car" depart="2596.62" from="469995172#0" to="-545162541#1" departLane="best"/>
  <trip id="trip_233" type="car" depart="2674.37" from="-896836751#0" to="-896836751#1" departLane="best"/>
  <trip id="trip_234" type="car" depart="778.98" from="774910112" to="311487892#2" departLane="best"/>
  <trip id="trip_235" type="car" depart="2608.51" from="896836750#1" to="429521998#0" departLane="best"/>
  <trip id="trip_236" type="car" depart="3529.84" from="-896836751#1" to="429521998#1" departLane="best"/>
  <trip id="trip_237" type="car" depart="818.94" from="-896836750#1" to="429521999#0" departLane="best"/>
  <trip id="trip_238" type="car" depart="50.93" from="896836751#0" to="-545162541#2" departLane="best"/>
  <trip id="trip_239" type="car" depart="987.52" from="-311487892#1" to="896836752#0" departLane="best"/>
  <trip id="trip_240" type="car" depart="1051.69" from="-545162541#2" to="774910117" departLane="best"/>
  <trip id="trip_241" type="car" depart="369.32" from="-1106590828" to="896836752#3" departLane="best"/>
  <trip id="trip_242" type="car" depart="1023.62" from="774910112" to="693882617#0" departLane="best"/>
  <trip id="trip_243" type="car" depart="1226.54" from="-311487892#1" to="311487884#2" departLane="best"/>
  <trip id="trip_244" type="car" depart="3387.83" from="774910112" to="-545162541#0" departLane="best"/>
  <trip id="trip_245" type="car" depart="2959.62" from="545162541#2" to="774910117" departLane="best"/>
  <trip id="trip_246" type="car" depart="266.70" from="-311487892#1" to="-774910112" departLane="best"/>
  <trip id="trip_247" type="car" depart="537.11" from="896836752#2" to="429521999#0" departLane="best"/>
  <trip id="trip_248" type="car" depart="306.65" from="311487884#1" to="-545162541#1" departLane="best"/>
  <trip id="trip_249" type="car" depart="2009.06" from="545162541#4" to="176439214#1" departLane="best"/>
  <trip id="trip_250" type="car" depart="2792.50" from="489977602#5" to="693882617#1" departLane="best"/>
  <trip id="trip_251" type="car" depart="3270.62" from="429521999#0" to="693882616#0" departLane="best"/>
  <trip id="trip_252" type="car" depart="1099.37" from="-311487892#2" to="-489977602#4" departLane="best"/>
  <trip id="trip_253" type="car" depart="3411.32" from="1106590828" to="176439214#0" departLane="best"/>
  <trip id="trip_254" type="car" depart="952.73" from="-489977602#2" to="-896836742" departLane="best"/>
  <trip id="trip_255" type="car" depart="863.51" from="896836752#0" to="-489977602#1" departLane="best"/>
  <trip id="trip_256" type="car" depart="563.52" from="545162541#3" to="693882617#1" departLane="best"/>
  <trip id="trip_257" type="car" depart="2481.74" from="774910109" to="429521998#1" departLane="best"/>
  <trip id="trip_258" type="car" depart="117.50" from="429521998#0" to="774901658" departLane="best"/>
  <trip id="trip_259" type="car" depart="256.25" from="176439259" to="311487892#0" departLane="best"/>
  <trip id="trip_260" type="car" depart="2836.18" from="1105725032" to="693882616#0" departLane="best"/>
  <trip id="trip_261" type="car" depart="413.19" from="176439214#1" to="-774910112" departLane="best"/>
  <trip id="trip_262" type="car" depart="3270.28" from="-545162541#4" to="-489977602#1" departLane="best"/>
  <trip id="trip_263" type="car" depart="214.70" from="429521999#1" to="896836752#2" departLane="best"/>
  <trip id="trip_264" type="car" depart="3316.29" from="693882617#0" to="-545162541#1" departLane="best"/>
  <trip id="trip_265" type="car" depart="1687.31" from="429521999#0" to="545162541#2" departLane="best"/>
  <trip id="trip_266" type="car" depart="3393.63" from="774910119" to="896836751#1" departLane="best"/>
  <trip id="trip_267" type="car" depart="1777.66" from="-489977602#2" to="-311487892#0" departLane="best"/>
  <trip id="trip_268" type="car" depart="3201.92" from="469995172#1" to="311487884#2" departLane="best"/>
  <trip id="trip_269" type="car" depart="93.11" from="176439259" to="896836752#3" departLane="best"/>
  <trip id="trip_270" type="car" depart="2113.64" from="-311487884#0" to="311487892#1" departLane="best"/>
  <trip id="trip_271" type="car" depart="2074.49" from="-896836750#1" to="774910109" departLane="best"/>
  <trip id="trip_272" type="car" depart="1868.27" from="693882617#0" to="311487892#2" departLane="best"/>
  <trip id="trip_273" type="car" depart="653.36" from="896836752#4" to="693882616#1" departLane="best"/>
  <trip id="trip_274" type="car" depart="2285.22" from="774910117" to="-489977602#3" departLane="best"/>
  <trip id="trip_275" type="car" depart="1692.04" from="545162541#3" to="489567380" departLane="best"/>
  <trip id="trip_276" type="car" depart="1155.81" from="-489977602#5" to="-896836742" departLane="best"/>
  <trip id="trip_277" type="car" depart="1187.29" from="774910118" to="429521998#0" departLane="best"/>
  <trip id="trip_278" type="car" depart="2385.30" from="545162541#2" to="896836752#0" departLane="best"/>
  <trip id="trip_279" type="car" depart="132.11" from="-489977602#3" to="469995172#0" departLane="best"/>
  <trip id="trip_280" type="car" depart="908.64" from="-545162541#0" to="545162541#2" departLane="best"/>
  <trip id="trip_281" type="car" depart="3113.68" from="-1105725032" to="896836751#1" departLane="best"/>
  <trip id="trip_282" type="car" depart="1663.11" from="-311487892#1" to="-896836751#1" departLane="best"/>
  <trip id="trip_283" type="car" depart="1866.38" from="774910118" to="693882617#0" departLane="best"/>