<?xml version="1.0" encoding="UTF-8"?>

<!-- generated on 2025-05-25 10:47:59 by Eclipse SUMO netedit Version 1.23.1
<neteditConfiguration xmlns:xsi="http://www.w3.org/2001/XMLSchema-instance" xsi:noNamespaceSchemaLocation="http://sumo.dlr.de/xsd/neteditConfiguration.xsd">

    <input>
        <sumo-net-file value="C:\Users\NJ\Desktop\123.net.xml"/>
    </input>

    <output>
        <output-file value="C:\Users\NJ\Desktop\123.net.xml"/>
    </output>

    <processing>
        <geometry.min-radius.fix.railways value="false"/>
        <geometry.avoid-overlap value="false"/>
        <geometry.max-grade.fix value="false"/>
        <offset.disable-normalization value="true"/>
        <lefthand value="0"/>
    </processing>

    <junctions>
        <no-turnarounds value="true"/>
        <junctions.corner-detail value="5"/>
        <junctions.limit-turn-speed value="5.50"/>
        <rectangular-lane-cut value="0"/>
    </junctions>

    <pedestrian>
        <walkingareas value="0"/>
    </pedestrian>

</neteditConfiguration>
-->

<net version="1.20" junctionCornerDetail="5" limitTurnSpeed="5.50" avoidOverlap="0" xmlns:xsi="http://www.w3.org/2001/XMLSchema-instance" xsi:noNamespaceSchemaLocation="http://sumo.dlr.de/xsd/net_file.xsd">

    <location netOffset="0.00,0.00" convBoundary="-1019.01,-647.79,1054.45,697.66" origBoundary="-10000000000.00,-10000000000.00,10000000000.00,10000000000.00" projParameter="!"/>

    <edge id=":J100_0" function="internal">
        <lane id=":J100_0_0" index="0" speed="6.31" length="9.04" shape="-443.85,470.25 -446.36,470.21 -448.20,471.00 -449.38,472.63 -449.89,475.09"/>
    </edge>
    <edge id=":J100_1" function="internal">
        <lane id=":J100_1_0" index="0" speed="13.89" length="14.67" shape="-443.85,470.25 -458.28,468.51"/>
        <lane id=":J100_1_1" index="1" speed="13.89" length="14.67" shape="-443.34,467.09 -458.03,465.32"/>
    </edge>
    <edge id=":J100_3" function="internal">
        <lane id=":J100_3_0" index="0" speed="8.87" length="3.34" shape="-443.34,467.09 -446.49,465.99"/>
    </edge>
    <edge id=":J100_14" function="internal">
        <lane id=":J100_14_0" index="0" speed="8.87" length="13.98" shape="-446.49,465.99 -447.30,465.70 -449.91,463.03 -451.15,459.07 -451.03,453.83"/>
    </edge>
    <edge id=":J100_4" function="internal">
        <lane id=":J100_4_0" index="0" speed="6.77" length="9.69" shape="-447.86,454.25 -447.80,456.73 -446.85,458.64 -445.03,459.99 -442.33,460.77"/>
    </edge>
    <edge id=":J100_5" function="internal">
        <lane id=":J100_5_0" index="0" speed="13.89" length="20.94" shape="-447.86,454.25 -449.89,475.09"/>
    </edge>
    <edge id=":J100_6" function="internal">
        <lane id=":J100_6_0" index="0" speed="8.85" length="16.82" shape="-447.86,454.25 -449.09,459.34 -451.20,462.88 -454.18,464.88 -458.03,465.32"/>
    </edge>
    <edge id=":J100_7" function="internal">
        <lane id=":J100_7_0" index="0" speed="6.73" length="9.32" shape="-457.54,458.94 -454.98,458.78 -453.04,457.88 -451.72,456.23 -451.03,453.83"/>
    </edge>
    <edge id=":J100_8" function="internal">
        <lane id=":J100_8_0" index="0" speed="13.89" length="15.19" shape="-457.54,458.94 -442.33,460.77"/>
        <lane id=":J100_8_1" index="1" speed="13.89" length="15.19" shape="-457.79,462.13 -442.83,463.93"/>
    </edge>
    <edge id=":J100_10" function="internal">
        <lane id=":J100_10_0" index="0" speed="8.78" length="3.88" shape="-457.79,462.13 -454.05,463.19"/>
    </edge>
    <edge id=":J100_15" function="internal">
        <lane id=":J100_15_0" index="0" speed="8.78" length="13.22" shape="-454.05,463.19 -451.49,465.70 -450.10,469.67 -449.89,475.09"/>
    </edge>
    <edge id=":J100_11" function="internal">
        <lane id=":J100_11_0" index="0" speed="6.65" length="9.35" shape="-453.09,474.89 -453.27,472.26 -454.20,470.32 -455.87,469.07 -458.28,468.51"/>
    </edge>
    <edge id=":J100_12" function="internal">
        <lane id=":J100_12_0" index="0" speed="13.89" length="21.17" shape="-453.09,474.89 -451.03,453.83"/>
    </edge>
    <edge id=":J100_13" function="internal">
        <lane id=":J100_13_0" index="0" speed="8.51" length="17.41" shape="-453.09,474.89 -452.16,469.53 -450.14,465.91 -447.03,464.05 -442.83,463.93"/>
    </edge>
    <edge id=":J101_0" function="internal">
        <lane id=":J101_0_0" index="0" speed="6.39" length="9.04" shape="-418.35,317.14 -420.83,316.86 -422.76,317.45 -424.15,318.92 -425.00,321.26"/>
    </edge>
    <edge id=":J101_1" function="internal">
        <lane id=":J101_1_0" index="0" speed="13.89" length="17.60" shape="-418.35,317.14 -423.50,315.70 -426.94,314.37 -430.17,312.57 -434.69,309.67"/>
        <lane id=":J101_1_1" index="1" speed="13.89" length="17.60" shape="-417.53,314.05 -422.40,312.68 -425.65,311.43 -428.69,309.72 -432.95,306.98"/>
    </edge>
    <edge id=":J101_3" function="internal">
        <lane id=":J101_3_0" index="0" speed="8.82" length="3.84" shape="-417.53,314.05 -420.97,312.34"/>
    </edge>
    <edge id=":J101_14" function="internal">
        <lane id=":J101_14_0" index="0" speed="8.82" length="14.15" shape="-420.97,312.34 -421.19,312.23 -423.24,309.13 -423.69,304.74 -422.55,299.07"/>
    </edge>
    <edge id=":J101_4" function="internal">
        <lane id=":J101_4_0" index="0" speed="6.69" length="9.92" shape="-419.49,300.01 -420.00,302.90 -419.58,305.17 -418.21,306.82 -415.90,307.86"/>
    </edge>
    <edge id=":J101_5" function="internal">
        <lane id=":J101_5_0" index="0" speed="13.89" length="21.96" shape="-419.49,300.01 -420.83,304.66 -422.42,310.60 -423.92,316.55 -425.00,321.26"/>
    </edge>
    <edge id=":J101_6" function="internal">
        <lane id=":J101_6_0" index="0" speed="8.30" length="18.54" shape="-419.49,300.01 -421.84,305.35 -424.87,308.28 -428.57,308.83 -432.95,306.98"/>
    </edge>
    <edge id=":J101_7" function="internal">
        <lane id=":J101_7_0" index="0" speed="6.00" length="9.08" shape="-429.48,301.60 -427.13,302.69 -425.18,302.63 -423.66,301.42 -422.55,299.07"/>
    </edge>
    <edge id=":J101_8" function="internal">
        <lane id=":J101_8_0" index="0" speed="13.89" length="15.58" shape="-429.48,301.60 -425.73,304.02 -423.05,305.54 -420.19,306.65 -415.90,307.86"/>
        <lane id=":J101_8_1" index="1" speed="13.89" length="15.58" shape="-431.22,304.29 -427.21,306.87 -424.35,308.48 -421.29,309.66 -416.72,310.96"/>
    </edge>
    <edge id=":J101_10" function="internal">
        <lane id=":J101_10_0" index="0" speed="10.84" length="4.78" shape="-431.22,304.29 -427.61,307.43"/>
    </edge>
    <edge id=":J101_15" function="internal">
        <lane id=":J101_15_0" index="0" speed="10.84" length="14.54" shape="-427.61,307.43 -425.37,311.30 -424.50,315.92 -425.00,321.26"/>
    </edge>
    <edge id=":J101_11" function="internal">
        <lane id=":J101_11_0" index="0" speed="9.15" length="13.57" shape="-428.13,320.61 -428.08,317.71 -429.16,314.91 -431.36,312.23 -434.69,309.67"/>
    </edge>
    <edge id=":J101_12" function="internal">
        <lane id=":J101_12_0" index="0" speed="13.89" length="22.26" shape="-428.13,320.61 -427.04,315.85 -425.51,309.80 -423.90,303.77 -422.55,299.07"/>
    </edge>
    <edge id=":J101_13" function="internal">
        <lane id=":J101_13_0" index="0" speed="8.58" length="17.15" shape="-428.13,320.61 -426.49,315.51 -424.03,312.19 -420.78,310.68 -416.72,310.96"/>
    </edge>
    <edge id=":J102_0" function="internal">
        <lane id=":J102_0_0" index="0" speed="7.07" length="9.71" shape="-702.94,449.62 -705.37,449.82 -707.30,450.83 -708.73,452.64 -709.64,455.27"/>
    </edge>
    <edge id=":J102_1" function="internal">
        <lane id=":J102_1_0" index="0" speed="13.89" length="20.38" shape="-702.94,449.62 -708.95,449.12 -713.19,448.60 -717.39,447.82 -723.29,446.54"/>
        <lane id=":J102_1_1" index="1" speed="13.89" length="20.38" shape="-702.69,446.43 -708.64,445.94 -712.72,445.45 -716.77,444.69 -722.59,443.41"/>
    </edge>
    <edge id=":J102_3" function="internal">
        <lane id=":J102_3_0" index="0" speed="8.86" length="4.70" shape="-702.69,446.43 -707.26,445.34"/>
    </edge>
    <edge id=":J102_15" function="internal">
        <lane id=":J102_15_0" index="0" speed="8.86" length="14.00" shape="-707.26,445.34 -707.50,445.28 -710.66,442.71 -712.16,438.72 -712.02,433.30"/>
    </edge>
    <edge id=":J102_4" function="internal">
        <lane id=":J102_4_0" index="0" speed="6.79" length="10.54" shape="-708.86,433.80 -708.78,436.32 -707.64,438.20 -705.45,439.44 -702.20,440.05"/>
    </edge>
    <edge id=":J102_5" function="internal">
        <lane id=":J102_5_0" index="0" speed="13.89" length="21.34" shape="-708.86,433.80 -709.01,437.87 -708.74,442.73 -708.73,448.49 -709.64,455.27"/>
        <lane id=":J102_5_1" index="1" speed="13.89" length="21.34" shape="-708.86,433.80 -712.77,454.58"/>
    </edge>
    <edge id=":J102_7" function="internal">
        <lane id=":J102_7_0" index="0" speed="9.07" length="19.39" shape="-708.86,433.80 -710.44,438.99 -713.26,442.32 -717.31,443.79 -722.59,443.41"/>
    </edge>
    <edge id=":J102_8" function="internal">
        <lane id=":J102_8_0" index="0" speed="7.08" length="11.39" shape="-721.21,437.16 -717.53,437.61 -714.77,437.12 -712.93,435.68 -712.02,433.30"/>
    </edge>
    <edge id=":J102_9" function="internal">
        <lane id=":J102_9_0" index="0" speed="13.89" length="19.48" shape="-721.21,437.16 -715.63,438.39 -711.78,439.11 -707.89,439.58 -702.20,440.05"/>
        <lane id=":J102_9_1" index="1" speed="13.89" length="19.48" shape="-721.90,440.29 -716.19,441.54 -712.25,442.28 -708.27,442.76 -702.45,443.24"/>
    </edge>
    <edge id=":J102_11" function="internal">
        <lane id=":J102_11_0" index="0" speed="9.26" length="4.93" shape="-721.90,440.29 -717.29,442.03"/>
    </edge>
    <edge id=":J102_16" function="internal">
        <lane id=":J102_16_0" index="0" speed="9.26" length="14.40" shape="-717.29,442.03 -716.94,442.16 -713.77,445.16 -712.38,449.30 -712.77,454.58"/>
    </edge>
    <edge id=":J102_12" function="internal">
        <lane id=":J102_12_0" index="0" speed="6.51" length="9.03" shape="-719.02,453.21 -718.84,450.75 -719.49,448.81 -720.97,447.41 -723.29,446.54"/>
    </edge>
    <edge id=":J102_13" function="internal">
        <lane id=":J102_13_0" index="0" speed="13.89" length="21.14" shape="-719.02,453.21 -717.13,446.68 -715.01,441.45 -713.14,437.12 -712.02,433.30"/>
    </edge>
    <edge id=":J102_14" function="internal">
        <lane id=":J102_14_0" index="0" speed="9.68" length="19.02" shape="-715.90,453.90 -714.11,448.92 -711.27,445.48 -707.39,443.59 -702.45,443.24"/>
    </edge>
    <edge id=":J103_0" function="internal">
        <lane id=":J103_0_0" index="0" speed="7.41" length="10.90" shape="-884.78,410.69 -887.96,410.36 -890.52,410.91 -892.45,412.35 -893.75,414.67"/>
    </edge>
    <edge id=":J103_1" function="internal">
        <lane id=":J103_1_0" index="0" speed="13.89" length="15.89" shape="-884.78,410.69 -889.42,409.65 -892.59,408.88 -895.72,407.98 -900.26,406.56"/>
        <lane id=":J103_1_1" index="1" speed="13.89" length="15.89" shape="-884.08,407.57 -888.65,406.55 -891.76,405.79 -894.83,404.91 -899.29,403.51"/>
    </edge>
    <edge id=":J103_3" function="internal">
        <lane id=":J103_3_0" index="0" speed="8.44" length="3.95" shape="-884.08,407.57 -887.72,406.02"/>
    </edge>
    <edge id=":J103_14" function="internal">
        <lane id=":J103_14_0" index="0" speed="8.44" length="13.76" shape="-887.72,406.02 -888.09,405.87 -890.29,402.95 -890.70,398.80 -889.30,393.44"/>
    </edge>
    <edge id=":J103_4" function="internal">
        <lane id=":J103_4_0" index="0" speed="6.21" length="9.05" shape="-886.32,394.58 -886.88,397.05 -886.46,399.00 -885.07,400.42 -882.70,401.32"/>
    </edge>
    <edge id=":J103_5" function="internal">
        <lane id=":J103_5_0" index="0" speed="13.89" length="21.42" shape="-886.32,394.58 -893.75,414.67"/>
    </edge>
    <edge id=":J103_6" function="internal">
        <lane id=":J103_6_0" index="0" speed="9.05" length="17.61" shape="-886.32,394.58 -888.80,399.50 -891.79,402.63 -895.29,403.97 -899.29,403.51"/>
    </edge>
    <edge id=":J103_7" function="internal">
        <lane id=":J103_7_0" index="0" speed="6.99" length="10.12" shape="-897.36,397.41 -894.67,397.85 -892.43,397.34 -890.64,395.87 -889.30,393.44"/>
    </edge>
    <edge id=":J103_8" function="internal">
        <lane id=":J103_8_0" index="0" speed="13.89" length="15.33" shape="-897.36,397.41 -893.06,398.76 -890.09,399.61 -887.10,400.34 -882.70,401.32"/>
        <lane id=":J103_8_1" index="1" speed="13.89" length="15.33" shape="-898.33,400.46 -893.95,401.83 -890.93,402.70 -887.87,403.44 -883.39,404.44"/>
    </edge>
    <edge id=":J103_10" function="internal">
        <lane id=":J103_10_0" index="0" speed="8.61" length="3.72" shape="-898.33,400.46 -895.06,402.24"/>
    </edge>
    <edge id=":J103_15" function="internal">
        <lane id=":J103_15_0" index="0" speed="8.61" length="13.33" shape="-895.06,402.24 -894.79,402.38 -892.85,405.39 -892.51,409.49 -893.75,414.67"/>
    </edge>
    <edge id=":J103_11" function="internal">
        <lane id=":J103_11_0" index="0" speed="6.43" length="9.03" shape="-896.77,413.60 -896.27,411.16 -896.69,409.18 -898.02,407.64 -900.26,406.56"/>
    </edge>
    <edge id=":J103_12" function="internal">
        <lane id=":J103_12_0" index="0" speed="13.89" length="21.50" shape="-896.77,413.60 -889.30,393.44"/>
    </edge>
    <edge id=":J103_13" function="internal">
        <lane id=":J103_13_0" index="0" speed="9.37" length="17.98" shape="-896.77,413.60 -894.43,408.81 -891.42,405.69 -887.74,404.23 -883.39,404.44"/>
    </edge>
    <edge id=":J107_0" function="internal">
        <lane id=":J107_0_0" index="0" speed="6.26" length="9.04" shape="-816.26,173.85 -818.78,173.67 -820.65,174.37 -821.89,175.94 -822.48,178.39"/>
    </edge>
    <edge id=":J107_1" function="internal">
        <lane id=":J107_1_0" index="0" speed="13.89" length="16.54" shape="-816.26,173.85 -821.11,172.78 -824.40,171.95 -827.65,170.97 -832.36,169.40"/>
        <lane id=":J107_1_1" index="1" speed="13.89" length="16.54" shape="-815.58,170.72 -820.32,169.67 -823.55,168.87 -826.73,167.90 -831.34,166.37"/>
    </edge>
    <edge id=":J107_3" function="internal">
        <lane id=":J107_3_0" index="0" speed="9.08" length="3.98" shape="-815.58,170.72 -819.25,169.18"/>
    </edge>
    <edge id=":J107_14" function="internal">
        <lane id=":J107_14_0" index="0" speed="9.08" length="14.03" shape="-819.25,169.18 -819.52,169.07 -822.03,166.13 -823.10,161.90 -822.74,156.39"/>
    </edge>
    <edge id=":J107_4" function="internal">
        <lane id=":J107_4_0" index="0" speed="7.05" length="10.44" shape="-819.58,156.94 -819.65,159.71 -818.78,161.89 -816.97,163.47 -814.22,164.47"/>
    </edge>
    <edge id=":J107_5" function="internal">
        <lane id=":J107_5_0" index="0" speed="13.89" length="21.64" shape="-819.58,156.94 -822.48,178.39"/>
    </edge>
    <edge id=":J107_6" function="internal">
        <lane id=":J107_6_0" index="0" speed="8.44" length="17.73" shape="-819.58,156.94 -821.15,162.27 -823.63,165.61 -827.02,166.98 -831.34,166.37"/>
    </edge>
    <edge id=":J107_7" function="internal">
        <lane id=":J107_7_0" index="0" speed="6.21" length="9.05" shape="-829.30,160.30 -826.81,160.75 -824.88,160.25 -823.53,158.80 -822.74,156.39"/>
    </edge>
    <edge id=":J107_8" function="internal">
        <lane id=":J107_8_0" index="0" speed="13.89" length="15.83" shape="-829.30,160.30 -824.89,161.77 -821.85,162.69 -818.76,163.46 -814.22,164.47"/>
        <lane id=":J107_8_1" index="1" speed="13.89" length="15.83" shape="-830.32,163.33 -825.81,164.83 -822.70,165.78 -819.54,166.57 -814.90,167.59"/>
    </edge>
    <edge id=":J107_10" function="internal">
        <lane id=":J107_10_0" index="0" speed="9.93" length="4.18" shape="-830.32,163.33 -826.64,165.31"/>
    </edge>
    <edge id=":J107_15" function="internal">
        <lane id=":J107_15_0" index="0" speed="9.93" length="14.31" shape="-826.64,165.31 -826.46,165.40 -823.87,168.60 -822.54,172.93 -822.48,178.39"/>
    </edge>
    <edge id=":J107_11" function="internal">
        <lane id=":J107_11_0" index="0" speed="8.08" length="11.95" shape="-825.67,178.09 -825.86,175.20 -827.04,172.79 -829.21,170.86 -832.36,169.40"/>
    </edge>
    <edge id=":J107_12" function="internal">
        <lane id=":J107_12_0" index="0" speed="13.89" length="21.90" shape="-825.67,178.09 -822.74,156.39"/>
    </edge>
    <edge id=":J107_13" function="internal">
        <lane id=":J107_13_0" index="0" speed="8.48" length="17.54" shape="-825.67,178.09 -824.55,172.72 -822.38,169.18 -819.16,167.47 -814.90,167.59"/>
    </edge>
    <edge id=":J108_0" function="internal">
        <lane id=":J108_0_0" index="0" speed="6.27" length="9.04" shape="-666.30,204.91 -668.82,204.78 -670.68,205.52 -671.88,207.12 -672.43,209.58"/>
    </edge>
    <edge id=":J108_1" function="internal">
        <lane id=":J108_1_0" index="0" speed="13.89" length="15.68" shape="-666.30,204.91 -681.68,202.00"/>
        <lane id=":J108_1_1" index="1" speed="13.89" length="15.68" shape="-665.69,201.77 -681.11,198.85"/>
    </edge>
    <edge id=":J108_3" function="internal">
        <lane id=":J108_3_0" index="0" speed="9.25" length="3.90" shape="-665.69,201.77 -669.32,200.35"/>
    </edge>
    <edge id=":J108_14" function="internal">
        <lane id=":J108_14_0" index="0" speed="9.25" length="13.99" shape="-669.32,200.35 -669.66,200.22 -672.33,197.39 -673.69,193.28 -673.76,187.87"/>
    </edge>
    <edge id=":J108_4" function="internal">
        <lane id=":J108_4_0" index="0" speed="7.25" length="10.64" shape="-670.57,188.18 -670.41,190.89 -669.33,193.01 -667.35,194.54 -664.46,195.49"/>
    </edge>
    <edge id=":J108_5" function="internal">
        <lane id=":J108_5_0" index="0" speed="13.89" length="21.47" shape="-670.57,188.18 -672.43,209.58"/>
    </edge>
    <edge id=":J108_6" function="internal">
        <lane id=":J108_6_0" index="0" speed="8.54" length="17.33" shape="-670.57,188.18 -671.68,193.49 -673.81,197.04 -676.95,198.82 -681.11,198.85"/>
    </edge>
    <edge id=":J108_7" function="internal">
        <lane id=":J108_7_0" index="0" speed="6.33" length="9.04" shape="-679.96,192.56 -677.45,192.65 -675.59,191.90 -674.35,190.31 -673.76,187.87"/>
    </edge>
    <edge id=":J108_8" function="internal">
        <lane id=":J108_8_0" index="0" speed="13.89" length="15.76" shape="-679.96,192.56 -664.46,195.49"/>
        <lane id=":J108_8_1" index="1" speed="13.89" length="15.76" shape="-680.53,195.70 -665.07,198.63"/>
    </edge>
    <edge id=":J108_10" function="internal">
        <lane id=":J108_10_0" index="0" speed="9.26" length="3.99" shape="-680.53,195.70 -676.81,197.13"/>
    </edge>
    <edge id=":J108_15" function="internal">
        <lane id=":J108_15_0" index="0" speed="9.26" length="13.86" shape="-676.81,197.13 -676.64,197.19 -673.99,200.00 -672.59,204.13 -672.43,209.58"/>
    </edge>
    <edge id=":J108_11" function="internal">
        <lane id=":J108_11_0" index="0" speed="7.27" length="10.61" shape="-675.62,209.33 -675.83,206.57 -676.90,204.43 -678.86,202.91 -681.68,202.00"/>
    </edge>
    <edge id=":J108_12" function="internal">
        <lane id=":J108_12_0" index="0" speed="13.89" length="21.54" shape="-675.62,209.33 -673.76,187.87"/>
    </edge>
    <edge id=":J108_13" function="internal">
        <lane id=":J108_13_0" index="0" speed="8.49" length="17.52" shape="-675.62,209.33 -674.60,203.95 -672.50,200.37 -669.33,198.59 -665.07,198.63"/>
    </edge>
    <edge id=":J110_0" function="internal">
        <lane id=":J110_0_0" index="0" speed="6.31" length="9.04" shape="-327.67,57.25 -330.04,56.45 -332.04,56.64 -333.67,57.83 -334.91,60.01"/>
    </edge>
    <edge id=":J110_1" function="internal">
        <lane id=":J110_1_0" index="0" speed="13.89" length="15.16" shape="-327.67,57.25 -341.12,50.13"/>
        <lane id=":J110_1_1" index="1" speed="13.89" length="15.16" shape="-326.22,54.40 -339.57,47.33"/>
    </edge>
    <edge id=":J110_3" function="internal">
        <lane id=":J110_3_0" index="0" speed="8.68" length="4.07" shape="-326.22,54.40 -329.46,51.93"/>
    </edge>
    <edge id=":J110_14" function="internal">
        <lane id=":J110_14_0" index="0" speed="8.68" length="13.27" shape="-329.46,51.93 -329.55,51.86 -331.09,48.52 -330.84,44.39 -328.81,39.46"/>
    </edge>
    <edge id=":J110_4" function="internal">
        <lane id=":J110_4_0" index="0" speed="6.53" length="9.35" shape="-326.00,41.00 -326.86,43.34 -326.70,45.40 -325.52,47.18 -323.33,48.69"/>
    </edge>
    <edge id=":J110_5" function="internal">
        <lane id=":J110_5_0" index="0" speed="13.89" length="21.00" shape="-326.00,41.00 -328.15,45.16 -330.67,50.40 -333.08,55.69 -334.91,60.01"/>
    </edge>
    <edge id=":J110_6" function="internal">
        <lane id=":J110_6_0" index="0" speed="8.68" length="16.96" shape="-326.00,41.00 -329.04,45.38 -332.31,47.89 -335.82,48.54 -339.57,47.33"/>
    </edge>
    <edge id=":J110_7" function="internal">
        <lane id=":J110_7_0" index="0" speed="6.52" length="9.11" shape="-336.46,41.73 -334.14,42.61 -332.09,42.53 -330.32,41.47 -328.81,39.46"/>
    </edge>
    <edge id=":J110_8" function="internal">
        <lane id=":J110_8_0" index="0" speed="13.89" length="14.92" shape="-336.46,41.73 -323.33,48.69"/>
        <lane id=":J110_8_1" index="1" speed="13.89" length="14.92" shape="-338.01,44.53 -324.78,51.54"/>
    </edge>
    <edge id=":J110_10" function="internal">
        <lane id=":J110_10_0" index="0" speed="9.26" length="3.43" shape="-338.01,44.53 -335.39,46.73"/>
    </edge>
    <edge id=":J110_15" function="internal">
        <lane id=":J110_15_0" index="0" speed="9.26" length="13.99" shape="-335.39,46.73 -334.99,47.07 -333.46,50.50 -333.44,54.81 -334.91,60.01"/>
    </edge>
    <edge id=":J110_11" function="internal">
        <lane id=":J110_11_0" index="0" speed="7.25" length="10.31" shape="-337.89,58.84 -337.25,56.16 -337.58,53.82 -338.87,51.81 -341.12,50.13"/>
    </edge>
    <edge id=":J110_12" function="internal">
        <lane id=":J110_12_0" index="0" speed="13.89" length="21.41" shape="-337.89,58.84 -336.04,54.46 -333.56,49.04 -330.98,43.68 -328.81,39.46"/>
    </edge>
    <edge id=":J110_13" function="internal">
        <lane id=":J110_13_0" index="0" speed="8.52" length="17.39" shape="-337.89,58.84 -335.35,54.02 -332.32,51.20 -328.80,50.38 -324.78,51.54"/>
    </edge>
    <edge id=":J111_0" function="internal">
        <lane id=":J111_0_0" index="0" speed="6.63" length="9.32" shape="-244.18,-96.22 -246.51,-97.05 -248.59,-96.90 -250.41,-95.76 -251.97,-93.65"/>
    </edge>
    <edge id=":J111_1" function="internal">
        <lane id=":J111_1_0" index="0" speed="13.89" length="14.67" shape="-244.18,-96.22 -257.28,-102.53"/>
        <lane id=":J111_1_1" index="1" speed="13.89" length="14.67" shape="-242.67,-99.04 -256.00,-105.46"/>
    </edge>
    <edge id=":J111_3" function="internal">
        <lane id=":J111_3_0" index="0" speed="13.89" length="15.19" shape="-253.45,-111.33 -239.65,-104.69"/>
        <lane id=":J111_3_1" index="1" speed="13.89" length="15.19" shape="-254.73,-108.40 -241.16,-101.87"/>
    </edge>
    <edge id=":J111_5" function="internal">
        <lane id=":J111_5_0" index="0" speed="8.52" length="4.19" shape="-254.73,-108.40 -251.26,-106.05"/>
    </edge>
    <edge id=":J111_8" function="internal">
        <lane id=":J111_8_0" index="0" speed="8.52" length="13.20" shape="-251.26,-106.05 -249.65,-102.81 -249.88,-98.67 -251.97,-93.65"/>
    </edge>
    <edge id=":J111_6" function="internal">
        <lane id=":J111_6_0" index="0" speed="6.31" length="9.04" shape="-254.77,-95.19 -253.89,-97.54 -254.01,-99.55 -255.14,-101.21 -257.28,-102.53"/>
    </edge>
    <edge id=":J111_7" function="internal">
        <lane id=":J111_7_0" index="0" speed="8.77" length="17.10" shape="-254.77,-95.19 -251.70,-99.65 -248.40,-102.25 -244.89,-102.99 -241.16,-101.87"/>
    </edge>
    <edge id=":J112_0" function="internal">
        <lane id=":J112_0_0" index="0" speed="6.63" length="9.53" shape="-256.46,92.86 -259.09,92.07 -261.29,92.24 -263.05,93.38 -264.37,95.48"/>
    </edge>
    <edge id=":J112_1" function="internal">
        <lane id=":J112_1_0" index="0" speed="13.89" length="14.87" shape="-256.46,92.86 -269.97,86.45"/>
        <lane id=":J112_1_1" index="1" speed="13.89" length="14.87" shape="-255.15,89.94 -268.52,83.60"/>
    </edge>
    <edge id=":J112_3" function="internal">
        <lane id=":J112_3_0" index="0" speed="8.50" length="4.09" shape="-255.15,89.94 -258.51,87.61"/>
    </edge>
    <edge id=":J112_14" function="internal">
        <lane id=":J112_14_0" index="0" speed="8.50" length="13.39" shape="-258.51,87.61 -258.63,87.53 -260.21,84.25 -259.88,80.12 -257.64,75.13"/>
    </edge>
    <edge id=":J112_4" function="internal">
        <lane id=":J112_4_0" index="0" speed="6.28" length="9.04" shape="-254.88,76.75 -255.84,79.08 -255.76,81.08 -254.66,82.76 -252.54,84.10"/>
    </edge>
    <edge id=":J112_5" function="internal">
        <lane id=":J112_5_0" index="0" speed="13.89" length="21.01" shape="-254.88,76.75 -257.16,80.85 -259.84,86.01 -262.42,91.22 -264.37,95.48"/>
    </edge>
    <edge id=":J112_6" function="internal">
        <lane id=":J112_6_0" index="0" speed="8.91" length="17.01" shape="-254.88,76.75 -258.07,81.15 -261.41,83.76 -264.89,84.57 -268.52,83.60"/>
    </edge>
    <edge id=":J112_7" function="internal">
        <lane id=":J112_7_0" index="0" speed="6.81" length="9.51" shape="-265.63,77.88 -263.29,78.64 -261.18,78.44 -259.30,77.26 -257.64,75.13"/>
    </edge>
    <edge id=":J112_8" function="internal">
        <lane id=":J112_8_0" index="0" speed="13.89" length="14.57" shape="-265.63,77.88 -252.54,84.10"/>
        <lane id=":J112_8_1" index="1" speed="13.89" length="14.57" shape="-267.08,80.74 -253.84,87.02"/>
    </edge>
    <edge id=":J112_10" function="internal">
        <lane id=":J112_10_0" index="0" speed="8.85" length="3.23" shape="-267.08,80.74 -264.54,82.74"/>
    </edge>
    <edge id=":J112_15" function="internal">
        <lane id=":J112_15_0" index="0" speed="8.85" length="13.49" shape="-264.54,82.74 -264.13,83.07 -262.70,86.30 -262.78,90.44 -264.37,95.48"/>
    </edge>
    <edge id=":J112_11" function="internal">
        <lane id=":J112_11_0" index="0" speed="6.72" length="9.24" shape="-267.32,94.22 -266.63,91.75 -266.85,89.64 -267.96,87.87 -269.97,86.45"/>
    </edge>
    <edge id=":J112_12" function="internal">
        <lane id=":J112_12_0" index="0" speed="13.89" length="21.41" shape="-267.32,94.22 -265.33,89.90 -262.69,84.57 -259.95,79.28 -257.64,75.13"/>
    </edge>
    <edge id=":J112_13" function="internal">
        <lane id=":J112_13_0" index="0" speed="8.75" length="17.41" shape="-267.32,94.22 -264.69,89.61 -261.57,86.87 -257.95,86.01 -253.84,87.02"/>
    </edge>
    <edge id=":J113_0" function="internal">
        <lane id=":J113_0_0" index="0" speed="6.46" length="9.07" shape="-170.26,-56.11 -172.53,-57.11 -174.57,-57.12 -176.37,-56.15 -177.93,-54.19"/>
    </edge>
    <edge id=":J113_1" function="internal">
        <lane id=":J113_1_0" index="0" speed="13.89" length="14.61" shape="-170.26,-56.11 -182.81,-63.37"/>
        <lane id=":J113_1_1" index="1" speed="13.89" length="14.61" shape="-168.56,-58.82 -181.30,-66.19"/>
    </edge>
    <edge id=":J113_3" function="internal">
        <lane id=":J113_3_0" index="0" speed="8.87" length="3.30" shape="-168.56,-58.82 -170.99,-61.06"/>
    </edge>
    <edge id=":J113_14" function="internal">
        <lane id=":J113_14_0" index="0" speed="8.87" length="13.73" shape="-170.99,-61.06 -171.50,-61.53 -172.78,-64.94 -172.39,-69.07 -170.33,-73.89"/>
    </edge>
    <edge id=":J113_4" function="internal">
        <lane id=":J113_4_0" index="0" speed="6.77" length="9.50" shape="-167.53,-72.33 -168.41,-69.99 -168.31,-67.86 -167.23,-65.95 -165.18,-64.25"/>
    </edge>
    <edge id=":J113_5" function="internal">
        <lane id=":J113_5_0" index="0" speed="13.89" length="20.91" shape="-167.53,-72.33 -177.93,-54.19"/>
    </edge>
    <edge id=":J113_6" function="internal">
        <lane id=":J113_6_0" index="0" speed="8.77" length="17.04" shape="-167.53,-72.33 -170.57,-68.05 -173.88,-65.59 -177.45,-64.98 -181.30,-66.19"/>
    </edge>
    <edge id=":J113_7" function="internal">
        <lane id=":J113_7_0" index="0" speed="6.64" length="9.33" shape="-178.28,-71.83 -175.82,-70.91 -173.67,-70.95 -171.84,-71.94 -170.33,-73.89"/>
    </edge>
    <edge id=":J113_8" function="internal">
        <lane id=":J113_8_0" index="0" speed="13.89" length="15.03" shape="-178.28,-71.83 -165.18,-64.25"/>
        <lane id=":J113_8_1" index="1" speed="13.89" length="15.03" shape="-179.79,-69.01 -166.87,-61.54"/>
    </edge>
    <edge id=":J113_10" function="internal">
        <lane id=":J113_10_0" index="0" speed="8.60" length="4.03" shape="-179.79,-69.01 -176.66,-66.47"/>
    </edge>
    <edge id=":J113_15" function="internal">
        <lane id=":J113_15_0" index="0" speed="8.60" length="13.04" shape="-176.66,-66.47 -175.30,-63.15 -175.73,-59.06 -177.93,-54.19"/>
    </edge>
    <edge id=":J113_11" function="internal">
        <lane id=":J113_11_0" index="0" speed="6.42" length="9.04" shape="-180.69,-55.81 -179.74,-58.11 -179.78,-60.14 -180.81,-61.89 -182.81,-63.37"/>
    </edge>
    <edge id=":J113_12" function="internal">