<?xml version="1.0" encoding="UTF-8"?>

<!-- generated on 2025-05-24 17:09:12 by Eclipse SUMO netedit Version 1.22.0
<neteditConfiguration xmlns:xsi="http://www.w3.org/2001/XMLSchema-instance" xsi:noNamespaceSchemaLocation="http://sumo.dlr.de/xsd/neteditConfiguration.xsd">

    <input>
        <sumo-net-file value="D:\coding\git\Sumo\Net\sejong_area.net.xml"/>
    </input>

    <output>
        <tls-file value="D:\coding\git\Sumo\Net\sejong_trafic.tll.xml"/>
        <output-file value="D:\coding\git\Sumo\Net\sejong_area.net.xml"/>
    </output>

    <processing>
        <geometry.min-radius.fix.railways value="false"/>
        <geometry.max-grade.fix value="false"/>
        <offset.disable-normalization value="true"/>
        <lefthand value="0"/>
    </processing>

    <junctions>
        <no-turnarounds value="true"/>
        <junctions.corner-detail value="5"/>
        <junctions.limit-turn-speed value="5.50"/>
        <rectangular-lane-cut value="0"/>
    </junctions>

    <pedestrian>
        <walkingareas value="0"/>
    </pedestrian>

</neteditConfiguration>
-->

<net version="1.20" junctionCornerDetail="5" limitTurnSpeed="5.50" xmlns:xsi="http://www.w3.org/2001/XMLSchema-instance" xsi:noNamespaceSchemaLocation="http://sumo.dlr.de/xsd/net_file.xsd">

    <location netOffset="-343457.11,-4038495.36" convBoundary="0.00,0.00,1395.05,1371.27" origBoundary="127.252437,36.479129,127.267922,36.491394" projParameter="+proj=utm +zone=52 +ellps=WGS84 +datum=WGS84 +units=m +no_defs"/>

    <type id="highway.cycleway" priority="1" numLanes="1" speed="5.56" allow="bicycle" oneway="0" width="2.00"/>
    <type id="highway.footway" priority="1" numLanes="1" speed="2.78" allow="pedestrian" oneway="1" width="2.00"/>
    <type id="highway.residential" priority="3" numLanes="1" speed="13.89" disallow="tram rail_urban rail rail_electric rail_fast ship container cable_car subway aircraft wheelchair scooter drone" oneway="0"/>
    <type id="highway.tertiary" priority="10" numLanes="1" speed="22.22" disallow="tram rail_urban rail rail_electric rail_fast ship container cable_car subway aircraft wheelchair scooter drone" oneway="0"/>

    <edge id=":10118275938_0" function="internal">
        <lane id=":10118275938_0_0" index="0" disallow="tram rail_urban rail rail_electric rail_fast ship container cable_car subway aircraft wheelchair scooter drone" speed="6.45" length="9.03" shape="926.93,825.27 924.59,824.43 922.56,824.55 920.84,825.64 919.44,827.69"/>
    </edge>
    <edge id=":10118275938_1" function="internal">
        <lane id=":10118275938_1_0" index="0" disallow="tram rail_urban rail rail_electric rail_fast ship container cable_car subway aircraft wheelchair scooter drone" speed="8.44" length="14.11" shape="926.93,825.27 923.98,823.09 922.28,820.37 921.85,817.09 922.67,813.25"/>
    </edge>
    <edge id=":10118275938_2" function="internal">
        <lane id=":10118275938_2_0" index="0" disallow="tram rail_urban rail rail_electric rail_fast ship container cable_car subway aircraft wheelchair scooter drone" speed="3.65" length="1.44" shape="926.93,825.27 926.24,824.00"/>
    </edge>
    <edge id=":10118275938_9" function="internal">
        <lane id=":10118275938_9_0" index="0" disallow="tram rail_urban rail rail_electric rail_fast ship container cable_car subway aircraft wheelchair scooter drone" speed="3.65" length="3.23" shape="926.24,824.00 926.26,823.10 926.99,822.58 928.42,822.44"/>
    </edge>
    <edge id=":10118275938_3" function="internal">
        <lane id=":10118275938_3_0" index="0" disallow="tram rail_urban rail rail_electric rail_fast ship container cable_car subway aircraft wheelchair scooter drone" speed="6.91" length="9.16" shape="925.56,814.67 925.05,817.13 925.35,819.25 926.48,821.02 928.42,822.44"/>
    </edge>
    <edge id=":10118275938_4" function="internal">
        <lane id=":10118275938_4_0" index="0" disallow="tram rail_urban rail rail_electric rail_fast ship container cable_car subway aircraft wheelchair scooter drone" speed="22.22" length="14.40" shape="925.56,814.67 924.22,818.06 922.71,821.27 921.09,824.43 919.44,827.69"/>
    </edge>
    <edge id=":10118275938_5" function="internal">
        <lane id=":10118275938_5_0" index="0" disallow="tram rail_urban rail rail_electric rail_fast ship container cable_car subway aircraft wheelchair scooter drone" speed="3.66" length="1.45" shape="925.56,814.67 924.31,815.40"/>
    </edge>
    <edge id=":10118275938_10" function="internal">
        <lane id=":10118275938_10_0" index="0" disallow="tram rail_urban rail rail_electric rail_fast ship container cable_car subway aircraft wheelchair scooter drone" speed="3.66" length="3.25" shape="924.31,815.40 923.41,815.41 922.86,814.69 922.67,813.25"/>
    </edge>
    <edge id=":10118275938_6" function="internal">
        <lane id=":10118275938_6_0" index="0" disallow="tram rail_urban rail rail_electric rail_fast ship container cable_car subway aircraft wheelchair scooter drone" speed="22.22" length="14.39" shape="916.57,826.27 918.22,823.01 919.83,819.85 921.33,816.64 922.67,813.25"/>
    </edge>
    <edge id=":10118275938_7" function="internal">
        <lane id=":10118275938_7_0" index="0" disallow="tram rail_urban rail rail_electric rail_fast ship container cable_car subway aircraft wheelchair scooter drone" speed="7.95" length="4.18" shape="916.57,826.27 918.79,823.03 919.00,822.90"/>
    </edge>
    <edge id=":10118275938_8" function="internal">
        <lane id=":10118275938_8_0" index="0" disallow="tram rail_urban rail rail_electric rail_fast ship container cable_car subway aircraft wheelchair scooter drone" speed="3.65" length="1.44" shape="916.57,826.27 917.82,825.55"/>
    </edge>
    <edge id=":10118275938_11" function="internal">
        <lane id=":10118275938_11_0" index="0" disallow="tram rail_urban rail rail_electric rail_fast ship container cable_car subway aircraft wheelchair scooter drone" speed="7.95" length="10.13" shape="919.00,822.90 921.51,821.31 924.72,821.11 928.42,822.44"/>
    </edge>
    <edge id=":10118275938_12" function="internal">
        <lane id=":10118275938_12_0" index="0" disallow="tram rail_urban rail rail_electric rail_fast ship container cable_car subway aircraft wheelchair scooter drone" speed="3.65" length="3.23" shape="917.82,825.55 918.71,825.54 919.25,826.26 919.44,827.69"/>
    </edge>
    <edge id=":10118275949_0" function="internal">
        <lane id=":10118275949_0_0" index="0" disallow="tram rail_urban rail rail_electric rail_fast ship container cable_car subway aircraft wheelchair scooter drone" speed="3.65" length="4.67" shape="1101.00,919.54 1101.61,920.85 1101.54,921.74 1100.78,922.22 1099.34,922.28"/>
    </edge>
    <edge id=":10126144085_0" function="internal">
        <lane id=":10126144085_0_0" index="0" disallow="tram rail_urban rail rail_electric rail_fast ship container cable_car subway aircraft wheelchair scooter drone" speed="3.65" length="4.67" shape="927.08,968.64 927.66,969.96 927.57,970.85 926.81,971.31 925.36,971.34"/>
    </edge>
    <edge id=":10196190231_0" function="internal">
        <lane id=":10196190231_0_0" index="0" disallow="tram rail_urban rail rail_electric rail_fast ship container cable_car subway aircraft wheelchair scooter drone" speed="3.65" length="4.67" shape="622.98,1334.47 622.09,1335.60 621.26,1335.93 620.50,1335.47 619.80,1334.21"/>
    </edge>
    <edge id=":10860309011_0" function="internal">
        <lane id=":10860309011_0_0" index="0" allow="pedestrian bicycle" speed="2.89" length="2.92" width="2.00" shape="758.73,410.69 759.63,410.75 760.09,411.07 760.12,411.62 759.71,412.43"/>
    </edge>
    <edge id=":10860309018_0" function="internal">
        <lane id=":10860309018_0_0" index="0" allow="pedestrian bicycle" speed="5.56" length="1.55" width="2.00" shape="681.75,549.89 681.73,550.35 681.68,550.66 681.56,550.96 681.34,551.36"/>
    </edge>
    <edge id=":10860309018_1" function="internal">
        <lane id=":10860309018_1_0" index="0" allow="pedestrian bicycle" speed="5.56" length="0.52" width="2.00" shape="679.61,550.35 679.69,550.22 679.73,550.12 679.74,550.01 679.75,549.86"/>
    </edge>
    <edge id=":10860309019_0" function="internal">
        <lane id=":10860309019_0_0" index="0" allow="pedestrian bicycle" speed="5.56" length="0.91" width="2.00" shape="666.31,577.11 666.17,577.34 666.06,577.50 665.94,577.63 665.74,577.82"/>
    </edge>
    <edge id=":10860309019_1" function="internal">
        <lane id=":10860309019_1_0" index="0" allow="pedestrian bicycle" speed="5.56" length="0.30" width="2.00" shape="664.39,576.34 664.46,576.28 664.50,576.23 664.53,576.18 664.58,576.10"/>
    </edge>
    <edge id=":10860309020_0" function="internal">
        <lane id=":10860309020_0_0" index="0" allow="pedestrian bicycle" speed="4.85" length="4.54" width="2.00" shape="674.06,568.82 673.00,568.44 672.03,568.55 671.14,569.15 670.32,570.24"/>
    </edge>
    <edge id=":10860309020_1" function="internal">
        <lane id=":10860309020_1_0" index="0" disallow="tram rail_urban rail rail_electric rail_fast ship container cable_car subway aircraft wheelchair scooter drone" speed="22.22" length="7.11" shape="674.06,568.82 668.02,565.06"/>
    </edge>
    <edge id=":10860309020_2" function="internal">
        <lane id=":10860309020_2_0" index="0" allow="pedestrian bicycle" speed="5.53" length="6.27" width="2.00" shape="674.06,568.82 672.45,567.66 671.53,566.43 671.30,565.14 671.77,563.78"/>
    </edge>
    <edge id=":10860309020_3" function="internal">
        <lane id=":10860309020_3_0" index="0" allow="pedestrian bicycle" speed="5.56" length="6.32" width="2.00" shape="673.50,564.78 670.32,570.24"/>
    </edge>
    <edge id=":10860309020_4" function="internal">
        <lane id=":10860309020_4_0" index="0" allow="pedestrian bicycle" speed="5.29" length="0.60" width="2.00" shape="673.50,564.78 673.11,565.23"/>
    </edge>
    <edge id=":10860309020_5" function="internal">
        <lane id=":10860309020_5_0" index="0" allow="pedestrian bicycle" speed="2.89" length="2.39" width="2.00" shape="673.50,564.78 672.69,565.18 672.13,565.14 671.83,564.68 671.81,564.31"/>
    </edge>
    <edge id=":10860309020_9" function="internal">
        <lane id=":10860309020_9_0" index="0" allow="pedestrian bicycle" speed="5.29" length="5.70" width="2.00" shape="673.11,565.23 672.54,565.87 671.30,566.28 669.79,566.01 668.02,565.06"/>
    </edge>
    <edge id=":10860309020_10" function="internal">
        <lane id=":10860309020_10_0" index="0" allow="pedestrian bicycle" speed="2.89" length="0.53" width="2.00" shape="671.81,564.31 671.77,563.78"/>
    </edge>
    <edge id=":10860309020_6" function="internal">
        <lane id=":10860309020_6_0" index="0" allow="pedestrian bicycle" speed="4.86" length="4.73" width="2.00" shape="668.59,569.23 669.15,567.95 669.24,566.83 668.86,565.87 668.02,565.06"/>
    </edge>
    <edge id=":10860309020_7" function="internal">
        <lane id=":10860309020_7_0" index="0" allow="pedestrian bicycle" speed="5.56" length="6.32" width="2.00" shape="668.59,569.23 671.77,563.78"/>
    </edge>
    <edge id=":10860309020_8" function="internal">
        <lane id=":10860309020_8_0" index="0" allow="pedestrian bicycle" speed="2.89" length="2.39" width="2.00" shape="668.59,569.23 669.40,568.84 669.96,568.87 670.26,569.34 670.29,569.71"/>
    </edge>
    <edge id=":10860309020_11" function="internal">
        <lane id=":10860309020_11_0" index="0" allow="pedestrian bicycle" speed="2.89" length="0.53" width="2.00" shape="670.29,569.71 670.32,570.24"/>
    </edge>
    <edge id=":10860309021_0" function="internal">
        <lane id=":10860309021_0_0" index="0" allow="pedestrian bicycle" speed="4.70" length="4.58" width="2.00" shape="679.25,554.93 678.70,556.20 678.61,557.28 678.98,558.19 679.83,558.93"/>
    </edge>
    <edge id=":10860309021_1" function="internal">
        <lane id=":10860309021_1_0" index="0" allow="pedestrian bicycle" speed="5.56" length="6.25" width="2.00" shape="679.25,554.93 676.10,560.33"/>
    </edge>
    <edge id=":10860309021_2" function="internal">
        <lane id=":10860309021_2_0" index="0" allow="pedestrian bicycle" speed="2.89" length="2.39" width="2.00" shape="679.25,554.93 678.44,555.32 677.89,555.29 677.58,554.82 677.56,554.45"/>
    </edge>
    <edge id=":10860309021_9" function="internal">
        <lane id=":10860309021_9_0" index="0" allow="pedestrian bicycle" speed="2.89" length="0.53" width="2.00" shape="677.56,554.45 677.53,553.92"/>
    </edge>
    <edge id=":10860309021_3" function="internal">
        <lane id=":10860309021_3_0" index="0" allow="pedestrian bicycle" speed="4.82" length="4.54" width="2.00" shape="673.79,555.30 674.84,555.71 675.81,555.61 676.70,555.01 677.53,553.92"/>
    </edge>
    <edge id=":10860309021_4" function="internal">
        <lane id=":10860309021_4_0" index="0" disallow="tram rail_urban rail rail_electric rail_fast ship container cable_car subway aircraft wheelchair scooter drone" speed="22.22" length="7.04" shape="673.79,555.30 679.83,558.93"/>
    </edge>
    <edge id=":10860309021_5" function="internal">
        <lane id=":10860309021_5_0" index="0" allow="pedestrian bicycle" speed="5.56" length="6.22" width="2.00" shape="673.79,555.30 675.39,556.49 676.31,557.73 676.54,559.01 676.10,560.33"/>
    </edge>
    <edge id=":10860309021_6" function="internal">
        <lane id=":10860309021_6_0" index="0" allow="pedestrian bicycle" speed="5.56" length="6.25" width="2.00" shape="674.38,559.32 677.53,553.92"/>
    </edge>
    <edge id=":10860309021_7" function="internal">
        <lane id=":10860309021_7_0" index="0" allow="pedestrian bicycle" speed="5.35" length="0.59" width="2.00" shape="674.38,559.32 674.77,558.88"/>
    </edge>
    <edge id=":10860309021_8" function="internal">
        <lane id=":10860309021_8_0" index="0" allow="pedestrian bicycle" speed="2.89" length="2.39" width="2.00" shape="674.38,559.32 675.19,558.92 675.74,558.96 676.05,559.43 676.07,559.79"/>
    </edge>
    <edge id=":10860309021_10" function="internal">
        <lane id=":10860309021_10_0" index="0" allow="pedestrian bicycle" speed="5.35" length="5.60" width="2.00" shape="674.77,558.88 675.31,558.28 676.53,557.87 678.03,558.08 679.83,558.93"/>
    </edge>
    <edge id=":10860309021_11" function="internal">
        <lane id=":10860309021_11_0" index="0" allow="pedestrian bicycle" speed="2.89" length="0.53" width="2.00" shape="676.07,559.79 676.10,560.33"/>
    </edge>
    <edge id=":10860309025_0" function="internal">
        <lane id=":10860309025_0_0" index="0" allow="pedestrian bicycle" speed="4.93" length="2.15" width="2.00" shape="555.67,770.78 555.85,771.39 555.92,771.84 555.84,772.28 555.57,772.83"/>
    </edge>
    <edge id=":10860309025_1" function="internal">
        <lane id=":10860309025_1_0" index="0" allow="pedestrian bicycle" speed="5.56" length="0.52" width="2.00" shape="553.84,771.84 553.89,771.71 553.87,771.61 553.82,771.50 553.76,771.36"/>
    </edge>
    <edge id=":10860309026_0" function="internal">
        <lane id=":10860309026_0_0" index="0" allow="pedestrian bicycle" speed="5.56" length="1.95" width="2.00" shape="546.32,789.03 546.02,789.52 545.76,789.83 545.43,790.05 544.91,790.29"/>
    </edge>
    <edge id=":10860309026_1" function="internal">
        <lane id=":10860309026_1_0" index="0" allow="pedestrian bicycle" speed="5.56" length="0.65" width="2.00" shape="544.11,788.46 544.29,788.38 544.40,788.30 544.48,788.20 544.58,788.04"/>
    </edge>
    <edge id=":10860309027_0" function="internal">
        <lane id=":10860309027_0_0" index="0" allow="pedestrian bicycle" speed="4.97" length="4.73" width="2.00" shape="554.82,779.44 553.71,779.07 552.69,779.20 551.76,779.83 550.93,780.97"/>
    </edge>
    <edge id=":10860309027_1" function="internal">
        <lane id=":10860309027_1_0" index="0" disallow="tram rail_urban rail rail_electric rail_fast ship container cable_car subway aircraft wheelchair scooter drone" speed="22.22" length="7.17" shape="554.82,779.44 548.50,776.06"/>
    </edge>
    <edge id=":10860309027_2" function="internal">
        <lane id=":10860309027_2_0" index="0" allow="pedestrian bicycle" speed="6.30" length="1.78" width="2.00" shape="554.82,779.44 553.44,778.33"/>
    </edge>
    <edge id=":10860309027_14" function="internal">
        <lane id=":10860309027_14_0" index="0" allow="pedestrian bicycle" speed="6.30" length="6.79" width="2.00" shape="553.44,778.33 553.23,778.16 552.51,776.49 552.68,774.44 553.74,772.01"/>
    </edge>
    <edge id=":10860309027_3" function="internal">
        <lane id=":10860309027_3_0" index="0" allow="pedestrian bicycle" speed="4.51" length="4.27" width="2.00" shape="555.48,773.00 555.01,774.14 555.00,775.12 555.44,775.95 556.34,776.62"/>
    </edge>
    <edge id=":10860309027_4" function="internal">
        <lane id=":10860309027_4_0" index="0" allow="pedestrian bicycle" speed="5.56" length="9.17" width="2.00" shape="555.48,773.00 550.93,780.97"/>
    </edge>
    <edge id=":10860309027_5" function="internal">
        <lane id=":10860309027_5_0" index="0" allow="pedestrian bicycle" speed="6.29" length="0.98" width="2.00" shape="555.48,773.00 554.90,773.80"/>
    </edge>
    <edge id=":10860309027_6" function="internal">
        <lane id=":10860309027_6_0" index="0" allow="pedestrian bicycle" speed="2.89" length="2.39" width="2.00" shape="555.48,773.00 554.67,773.41 554.11,773.38 553.80,772.91 553.77,772.54"/>
    </edge>
    <edge id=":10860309027_15" function="internal">
        <lane id=":10860309027_15_0" index="0" allow="pedestrian bicycle" speed="6.29" length="7.60" width="2.00" shape="554.90,773.80 553.93,775.14 552.25,776.37 550.44,776.67 548.50,776.06"/>
    </edge>
    <edge id=":10860309027_16" function="internal">
        <lane id=":10860309027_16_0" index="0" allow="pedestrian bicycle" speed="2.89" length="0.53" width="2.00" shape="553.77,772.54 553.74,772.01"/>
    </edge>
    <edge id=":10860309027_7" function="internal">
        <lane id=":10860309027_7_0" index="0" allow="pedestrian bicycle" speed="4.84" length="4.44" width="2.00" shape="550.01,773.23 551.11,773.62 552.10,773.55 552.98,773.01 553.74,772.01"/>
    </edge>
    <edge id=":10860309027_8" function="internal">
        <lane id=":10860309027_8_0" index="0" disallow="tram rail_urban rail rail_electric rail_fast ship container cable_car subway aircraft wheelchair scooter drone" speed="22.22" length="7.18" shape="550.01,773.23 556.34,776.62"/>
    </edge>
    <edge id=":10860309027_9" function="internal">
        <lane id=":10860309027_9_0" index="0" allow="pedestrian bicycle" speed="6.39" length="1.75" width="2.00" shape="550.01,773.23 551.37,774.35"/>
    </edge>
    <edge id=":10860309027_17" function="internal">
        <lane id=":10860309027_17_0" index="0" allow="pedestrian bicycle" speed="6.39" length="7.11" width="2.00" shape="551.37,774.35 551.60,774.54 552.28,776.26 552.06,778.40 550.93,780.97"/>
    </edge>
    <edge id=":10860309027_10" function="internal">
        <lane id=":10860309027_10_0" index="0" allow="pedestrian bicycle" speed="4.63" length="4.55" width="2.00" shape="549.19,779.97 549.73,778.71 549.79,777.64 549.39,776.75 548.50,776.06"/>
    </edge>
    <edge id=":10860309027_11" function="internal">
        <lane id=":10860309027_11_0" index="0" allow="pedestrian bicycle" speed="5.56" length="9.17" width="2.00" shape="549.19,779.97 553.74,772.01"/>
    </edge>
    <edge id=":10860309027_12" function="internal">
        <lane id=":10860309027_12_0" index="0" allow="pedestrian bicycle" speed="6.39" length="1.03" width="2.00" shape="549.19,779.97 549.79,779.14"/>
    </edge>
    <edge id=":10860309027_13" function="internal">
        <lane id=":10860309027_13_0" index="0" allow="pedestrian bicycle" speed="2.89" length="2.39" width="2.00" shape="549.19,779.97 550.00,779.57 550.56,779.60 550.87,780.07 550.89,780.43"/>
    </edge>
    <edge id=":10860309027_18" function="internal">
        <lane id=":10860309027_18_0" index="0" allow="pedestrian bicycle" speed="6.39" length="7.85" width="2.00" shape="549.79,779.14 550.82,777.70 552.55,776.39 554.39,776.03 556.34,776.62"/>
    </edge>
    <edge id=":10860309027_19" function="internal">
        <lane id=":10860309027_19_0" index="0" allow="pedestrian bicycle" speed="2.89" length="0.53" width="2.00" shape="550.89,780.43 550.93,780.97"/>
    </edge>
    <edge id=":10860309042_0" function="internal">
        <lane id=":10860309042_0_0" index="0" allow="pedestrian bicycle" speed="2.89" length="2.92" width="2.00" shape="429.45,1122.05 429.36,1122.95 429.04,1123.40 428.48,1123.42 427.69,1122.99"/>
    </edge>
    <edge id=":10968712778_0" function="internal">
        <lane id=":10968712778_0_0" index="0" disallow="tram rail_urban rail rail_electric rail_fast ship container cable_car subway aircraft wheelchair scooter drone" speed="22.22" length="0.24" shape="784.26,1061.07 784.22,1061.14 784.20,1061.18 784.18,1061.22 784.15,1061.29"/>
    </edge>
    <edge id=":10968712778_1" function="internal">
        <lane id=":10968712778_1_0" index="0" disallow="tram rail_urban rail rail_electric rail_fast ship container cable_car subway aircraft wheelchair scooter drone" speed="22.22" length="0.72" shape="781.19,1060.10 781.27,1059.90 781.33,1059.76 781.40,1059.64 781.50,1059.45"/>
    </edge>
    <edge id=":279786874_0" function="internal">
        <lane id=":279786874_0_0" index="0" disallow="tram rail_urban rail rail_electric rail_fast ship container cable_car subway aircraft wheelchair scooter drone" speed="3.65" length="4.67" shape="1197.11,751.22 1197.74,752.52 1197.68,753.41 1196.93,753.90 1195.49,753.98"/>
    </edge>
    <edge id=":3171508650_0" function="internal">
        <lane id=":3171508650_0_0" index="0" disallow="tram rail_urban rail rail_electric rail_fast ship container cable_car subway aircraft wheelchair scooter drone" speed="22.22" length="15.04" shape="808.54,800.67 807.42,804.26 806.19,807.82 804.85,811.34 803.40,814.80"/>
    </edge>
    <edge id=":3171508650_1" function="internal">
        <lane id=":3171508650_1_0" index="0" disallow="tram rail_urban rail rail_electric rail_fast ship container cable_car subway aircraft wheelchair scooter drone" speed="7.72" length="4.36" shape="808.54,800.67 806.78,804.48 806.65,804.59"/>
    </edge>
    <edge id=":3171508650_2" function="internal">
        <lane id=":3171508650_2_0" index="0" disallow="tram rail_urban rail rail_electric rail_fast ship container cable_car subway aircraft wheelchair scooter drone" speed="3.65" length="1.44" shape="808.54,800.67 807.43,801.60"/>
    </edge>
    <edge id=":3171508650_9" function="internal">
        <lane id=":3171508650_9_0" index="0" disallow="tram rail_urban rail rail_electric rail_fast ship container cable_car subway aircraft wheelchair scooter drone" speed="7.72" length="10.55" shape="806.65,804.59 804.28,806.58 801.04,806.95 797.06,805.61"/>
    </edge>
    <edge id=":3171508650_10" function="internal">
        <lane id=":3171508650_10_0" index="0" disallow="tram rail_urban rail rail_electric rail_fast ship container cable_car subway aircraft wheelchair scooter drone" speed="3.65" length="3.23" shape="807.43,801.60 806.55,801.75 805.90,801.14 805.48,799.76"/>
    </edge>
    <edge id=":3171508650_3" function="internal">
        <lane id=":3171508650_3_0" index="0" disallow="tram rail_urban rail rail_electric rail_fast ship container cable_car subway aircraft wheelchair scooter drone" speed="6.15" length="9.06" shape="798.51,802.75 800.92,803.57 802.89,803.34 804.41,802.07 805.48,799.76"/>
    </edge>
    <edge id=":3171508650_4" function="internal">
        <lane id=":3171508650_4_0" index="0" disallow="tram rail_urban rail rail_electric rail_fast ship container cable_car subway aircraft wheelchair scooter drone" speed="8.28" length="14.65" shape="798.51,802.75 801.94,805.09 803.90,807.88 804.39,811.11 803.40,814.80"/>
    </edge>
    <edge id=":3171508650_5" function="internal">
        <lane id=":3171508650_5_0" index="0" disallow="tram rail_urban rail rail_electric rail_fast ship container cable_car subway aircraft wheelchair scooter drone" speed="3.65" length="1.44" shape="798.51,802.75 799.22,804.01"/>
    </edge>
    <edge id=":3171508650_11" function="internal">
        <lane id=":3171508650_11_0" index="0" disallow="tram rail_urban rail rail_electric rail_fast ship container cable_car subway aircraft wheelchair scooter drone" speed="3.65" length="3.23" shape="799.22,804.01 799.21,804.90 798.49,805.44 797.06,805.61"/>
    </edge>
    <edge id=":3171508650_6" function="internal">
        <lane id=":3171508650_6_0" index="0" disallow="tram rail_urban rail rail_electric rail_fast ship container cable_car subway aircraft wheelchair scooter drone" speed="6.85" length="9.69" shape="800.47,813.51 801.09,811.12 800.73,809.01 799.39,807.17 797.06,805.61"/>
    </edge>
    <edge id=":3171508650_7" function="internal">
        <lane id=":3171508650_7_0" index="0" disallow="tram rail_urban rail rail_electric rail_fast ship container cable_car subway aircraft wheelchair scooter drone" speed="22.22" length="14.64" shape="800.47,813.51 801.90,810.10 803.19,806.72 804.37,803.29 805.48,799.76"/>
    </edge>
    <edge id=":3171508650_8" function="internal">
        <lane id=":3171508650_8_0" index="0" disallow="tram rail_urban rail rail_electric rail_fast ship container cable_car subway aircraft wheelchair scooter drone" speed="3.65" length="1.44" shape="800.47,813.51 801.69,812.73"/>
    </edge>
    <edge id=":3171508650_12" function="internal">
        <lane id=":3171508650_12_0" index="0" disallow="tram rail_urban rail rail_electric rail_fast ship container cable_car subway aircraft wheelchair scooter drone" speed="3.65" length="3.23" shape="801.69,812.73 802.58,812.69 803.15,813.38 803.40,814.80"/>
    </edge>
    <edge id=":3424335380_0" function="internal">
        <lane id=":3424335380_0_0" index="0" disallow="tram rail_urban rail rail_electric rail_fast ship container cable_car subway aircraft wheelchair scooter drone" speed="3.65" length="4.67" shape="-1.09,557.13 -1.42,555.73 -1.17,554.87 -0.33,554.56 1.09,554.79"/>
    </edge>
    <edge id=":4286725471_0" function="internal">
        <lane id=":4286725471_0_0" index="0" disallow="tram rail_urban rail rail_electric rail_fast ship container cable_car subway aircraft wheelchair scooter drone" speed="22.22" length="10.91" shape="644.85,550.94 635.42,545.44"/>
    </edge>
    <edge id=":4286725471_1" function="internal">
        <lane id=":4286725471_1_0" index="0" disallow="tram rail_urban rail rail_electric rail_fast ship container cable_car subway aircraft wheelchair scooter drone" speed="6.37" length="8.54" shape="644.85,550.94 642.93,549.50 641.91,547.83 641.79,545.92 642.57,543.79"/>
    </edge>
    <edge id=":4286725471_2" function="internal">
        <lane id=":4286725471_2_0" index="0" disallow="tram rail_urban rail rail_electric rail_fast ship container cable_car subway aircraft wheelchair scooter drone" speed="6.58" length="8.92" shape="637.52,553.06 638.36,550.80 638.29,548.77 637.31,546.98 635.42,545.44"/>
    </edge>
    <edge id=":4286725471_3" function="internal">
        <lane id=":4286725471_3_0" index="0" disallow="tram rail_urban rail rail_electric rail_fast ship container cable_car subway aircraft wheelchair scooter drone" speed="22.22" length="10.56" shape="637.52,553.06 642.57,543.79"/>
    </edge>
    <edge id=":4286725480_0" function="internal">
        <lane id=":4286725480_0_0" index="0" disallow="tram rail_urban rail rail_electric rail_fast ship container cable_car subway aircraft wheelchair scooter drone" speed="6.08" length="9.06" shape="847.00,692.29 844.61,691.37 842.65,691.53 841.13,692.77 840.05,695.10"/>
    </edge>
    <edge id=":4286725480_1" function="internal">
        <lane id=":4286725480_1_0" index="0" disallow="tram rail_urban rail rail_electric rail_fast ship container cable_car subway aircraft wheelchair scooter drone" speed="22.22" length="15.60" shape="847.00,692.29 843.69,690.34 840.35,688.22 837.08,685.99 833.98,683.71"/>
    </edge>
    <edge id=":4286725480_2" function="internal">
        <lane id=":4286725480_2_0" index="0" disallow="tram rail_urban rail rail_electric rail_fast ship container cable_car subway aircraft wheelchair scooter drone" speed="8.49" length="13.51" shape="847.00,692.29 843.58,689.91 841.42,687.33 840.51,684.53 840.85,681.51"/>
    </edge>
    <edge id=":4286725480_3" function="internal">
        <lane id=":4286725480_3_0" index="0" disallow="tram rail_urban rail rail_electric rail_fast ship container cable_car subway aircraft wheelchair scooter drone" speed="22.22" length="13.21" shape="843.90,682.46 840.05,695.10"/>
    </edge>
    <edge id=":4286725480_4" function="internal">
        <lane id=":4286725480_4_0" index="0" disallow="tram rail_urban rail rail_electric rail_fast ship container cable_car subway aircraft wheelchair scooter drone" speed="6.77" length="3.11" shape="843.90,682.46 842.46,685.21"/>
    </edge>
    <edge id=":4286725480_5" function="internal">
        <lane id=":4286725480_5_0" index="0" disallow="tram rail_urban rail rail_electric rail_fast ship container cable_car subway aircraft wheelchair scooter drone" speed="3.65" length="1.44" shape="843.90,682.46 842.78,683.37"/>
    </edge>
    <edge id=":4286725480_9" function="internal">
        <lane id=":4286725480_9_0" index="0" disallow="tram rail_urban rail rail_electric rail_fast ship container cable_car subway aircraft wheelchair scooter drone" speed="6.77" length="9.39" shape="842.46,685.21 840.32,686.33 837.49,685.83 833.98,683.71"/>
    </edge>
    <edge id=":4286725480_10" function="internal">
        <lane id=":4286725480_10_0" index="0" disallow="tram rail_urban rail rail_electric rail_fast ship container cable_car subway aircraft wheelchair scooter drone" speed="3.65" length="3.23" shape="842.78,683.37 841.90,683.52 841.26,682.90 840.85,681.51"/>
    </edge>